** sch_path: /home/designer/shared/LC_VCO_FPLL/xschem/LC_VCO_FPLL.sch
.subckt LC_VCO_FPLL CLK_IN VDD CLK_OUT VSS EN RST SDATA SCLK
*.PININFO CLK_IN:I CLK_OUT:O EN:I SDATA:I SCLK:I RST:I VDD:B VSS:B
x1 CLK_IN UP VDD VSS CLK_FB DN PHASE_FREQ_DET
x2 UP VDD VCP VBGR VSS DN VSS CHARGE_PUMP
x3 VCTRL VCP VSS VSS LOOP_FILTER
x4 VDD VCTRL VSS CLK_OUT VBGR LC_VCO
x5 CLK_OUT RST SCLK SDATA EN CLK_FB VDD VSS DSM_N_FREQ_DIV
x6 VDD VSS VBGR VSS BANDGAP_REF
**** begin user architecture code


* NGSPICE file created from DSM_N_FREQ_DIV.ext - technology: ihp-sg13g2

.subckt DSM_N_FREQ_DIV freq_in rst sclk sdata en freq_out VDD GND
XFILLER_13_111 VDD GND sg13g2_decap_8
XFILLER_9_159 VDD GND sg13g2_decap_8
XFILLER_3_67 VDD GND sg13g2_fill_1
XFILLER_10_147 VDD GND sg13g2_decap_8
X_200_ _200_/Y _200_/A _200_/B _200_/C VDD GND sg13g2_nand3_1
X_131_ _263_/D _263_/Q _262_/Q _130_/Y VDD GND sg13g2_a21oi_1
XFILLER_0_35 VDD GND sg13g2_decap_8
XFILLER_9_33 VDD GND sg13g2_decap_8
XFILLER_18_64 VDD GND sg13g2_fill_1
Xfanout7 _213_/A _260_/Q VDD GND sg13g2_buf_1
XFILLER_20_21 VDD GND sg13g2_decap_8
XFILLER_6_89 VDD GND sg13g2_decap_8
XFILLER_15_21 VDD GND sg13g2_decap_8
XFILLER_15_76 VDD GND sg13g2_decap_8
XFILLER_13_156 VDD GND sg13g2_decap_8
XFILLER_3_57 VDD GND sg13g2_fill_1
XFILLER_3_46 VDD GND sg13g2_decap_8
X_130_ _130_/Y _262_/Q _261_/Q _263_/Q VDD GND sg13g2_a21oi_1
XFILLER_0_14 VDD GND sg13g2_decap_8
X_259_ _259_/Q _260_/Q _259_/D _232_/Y VDD GND sg13g2_dfrbpq_1
XFILLER_9_67 VDD GND sg13g2_fill_2
XFILLER_2_144 VDD GND sg13g2_decap_8
XFILLER_18_54 VDD GND sg13g2_fill_2
XFILLER_15_7 VDD GND sg13g2_decap_8
Xfanout8 _224_/A input2/X VDD GND sg13g2_buf_1
XFILLER_20_77 VDD GND sg13g2_decap_8
XFILLER_6_68 VDD GND sg13g2_fill_1
XFILLER_19_151 VDD GND sg13g2_decap_8
XFILLER_16_165 VDD GND sg13g2_fill_2
XFILLER_9_128 VDD GND sg13g2_decap_8
XFILLER_10_116 VDD GND sg13g2_decap_8
XFILLER_10_138 VDD GND sg13g2_fill_1
XFILLER_5_164 VDD GND sg13g2_fill_2
X_189_ _196_/B _248_/Q _195_/B VDD GND sg13g2_xor2_1
X_258_ _258_/Q _260_/Q _258_/D _231_/Y VDD GND sg13g2_dfrbpq_1
XFILLER_9_79 VDD GND sg13g2_decap_8
Xfanout9 _232_/A input2/X VDD GND sg13g2_buf_1
XFILLER_1_0 VDD GND sg13g2_decap_8
XFILLER_20_56 VDD GND sg13g2_decap_8
XFILLER_6_47 VDD GND sg13g2_decap_8
XFILLER_19_130 VDD GND sg13g2_decap_8
XFILLER_15_56 VDD GND sg13g2_decap_8
XFILLER_13_136 VDD GND sg13g2_fill_1
XFILLER_9_107 VDD GND sg13g2_decap_8
XFILLER_12_35 VDD GND sg13g2_fill_2
XFILLER_5_7 VDD GND sg13g2_decap_8
XFILLER_5_143 VDD GND sg13g2_decap_8
XFILLER_0_49 VDD GND sg13g2_decap_8
X_188_ _192_/B _256_/Q _188_/B VDD GND sg13g2_nand2_1
X_257_ _257_/Q _260_/Q _257_/D _230_/Y VDD GND sg13g2_dfrbpq_1
XFILLER_9_69 VDD GND sg13g2_fill_1
XFILLER_9_47 VDD GND sg13g2_decap_4
XFILLER_6_26 VDD GND sg13g2_decap_8
XFILLER_20_35 VDD GND sg13g2_decap_8
XFILLER_20_7 VDD GND sg13g2_decap_8
XFILLER_15_35 VDD GND sg13g2_decap_8
XFILLER_13_104 VDD GND sg13g2_decap_8
XFILLER_7_91 VDD GND sg13g2_fill_2
XFILLER_7_80 VDD GND sg13g2_decap_8
XFILLER_8_130 VDD GND sg13g2_decap_4
XFILLER_5_122 VDD GND sg13g2_fill_2
XFILLER_5_166 VDD GND sg13g2_fill_1
XFILLER_2_158 VDD GND sg13g2_decap_4
XFILLER_2_136 VDD GND sg13g2_decap_4
XFILLER_2_114 VDD GND sg13g2_fill_1
XFILLER_0_28 VDD GND sg13g2_decap_8
XFILLER_13_90 VDD GND sg13g2_decap_8
X_256_ _256_/Q _213_/A _256_/D _229_/Y VDD GND sg13g2_dfrbpq_1
X_187_ _192_/A _247_/Q _195_/B VDD GND sg13g2_nand2_1
XFILLER_9_26 VDD GND sg13g2_decap_8
Xclkload0 clkload0/Y _250_/CLK VDD GND sg13g2_inv_1
X_239_ _239_/Y _239_/A VDD GND sg13g2_inv_1
XFILLER_20_14 VDD GND sg13g2_decap_8
XFILLER_19_165 VDD GND sg13g2_fill_2
XFILLER_15_14 VDD GND sg13g2_decap_8
XFILLER_15_69 VDD GND sg13g2_decap_8
XFILLER_16_113 VDD GND sg13g2_decap_4
XFILLER_11_4 VDD GND sg13g2_decap_4
XFILLER_13_149 VDD GND sg13g2_decap_8
XFILLER_4_93 VDD GND sg13g2_decap_8
X_255_ _255_/Q _213_/A _255_/D _228_/Y VDD GND sg13g2_dfrbpq_1
X_186_ _194_/A _172_/A _183_/Y _185_/Y VDD GND sg13g2_o21ai_1
X_238_ _238_/Y _239_/A VDD GND sg13g2_inv_1
X_169_ _171_/A _170_/A _170_/B _170_/C VDD GND sg13g2_a21oi_1
XFILLER_1_94 VDD GND sg13g2_decap_4
XFILLER_10_81 VDD GND sg13g2_decap_8
XFILLER_19_144 VDD GND sg13g2_decap_8
Xclkbuf_1_0__f_sclk _246_/CLK clkbuf_0_sclk/X VDD GND sg13g2_buf_16
XFILLER_10_109 VDD GND sg13g2_decap_8
XFILLER_12_49 VDD GND sg13g2_decap_4
XFILLER_5_157 VDD GND sg13g2_decap_8
XFILLER_5_102 VDD GND sg13g2_decap_8
XFILLER_4_72 VDD GND sg13g2_decap_8
X_254_ _254_/Q _213_/A _254_/D _227_/Y VDD GND sg13g2_dfrbpq_1
X_185_ _185_/Y _171_/A _184_/Y _179_/B VDD GND sg13g2_a21oi_1
XFILLER_3_7 VDD GND sg13g2_fill_2
XFILLER_2_127 VDD GND sg13g2_fill_1
XFILLER_1_160 VDD GND sg13g2_decap_8
X_237_ _237_/Y _241_/A VDD GND sg13g2_inv_1
X_168_ _170_/C _255_/Q _174_/B VDD GND sg13g2_xnor2_1
XFILLER_20_49 VDD GND sg13g2_decap_8
XFILLER_19_123 VDD GND sg13g2_decap_8
XFILLER_15_49 VDD GND sg13g2_decap_8
XFILLER_13_118 VDD GND sg13g2_decap_4
XFILLER_16_92 VDD GND sg13g2_decap_8
XFILLER_8_166 VDD GND sg13g2_fill_1
XFILLER_5_136 VDD GND sg13g2_decap_8
XFILLER_4_51 VDD GND sg13g2_decap_8
X_253_ _253_/Q _213_/A _253_/D _226_/Y VDD GND sg13g2_dfrbpq_1
X_184_ _184_/Y _184_/A _184_/B _184_/C VDD GND sg13g2_nand3_1
X_236_ _236_/Y _241_/A VDD GND sg13g2_inv_1
X_167_ _174_/B _246_/Q _173_/B VDD GND sg13g2_xor2_1
XFILLER_20_28 VDD GND sg13g2_decap_8
XFILLER_1_74 VDD GND sg13g2_fill_1
XFILLER_6_19 VDD GND sg13g2_decap_8
X_219_ _219_/Y _224_/A VDD GND sg13g2_inv_1
XFILLER_15_28 VDD GND sg13g2_decap_8
XFILLER_16_127 VDD GND sg13g2_decap_4
XFILLER_15_160 VDD GND sg13g2_decap_8
XFILLER_16_71 VDD GND sg13g2_decap_8
XFILLER_8_134 VDD GND sg13g2_fill_2
XFILLER_8_123 VDD GND sg13g2_decap_8
XFILLER_4_30 VDD GND sg13g2_decap_8
XFILLER_13_83 VDD GND sg13g2_decap_8
X_252_ _252_/Q _213_/A _252_/D _225_/Y VDD GND sg13g2_dfrbpq_1
X_183_ _183_/Y _183_/A _183_/B VDD GND sg13g2_nand2_1
XFILLER_9_19 VDD GND sg13g2_decap_8
X_235_ _235_/Y _241_/A VDD GND sg13g2_inv_1
X_166_ _170_/B _254_/Q _166_/B VDD GND sg13g2_nand2_1
XFILLER_10_95 VDD GND sg13g2_decap_8
X_218_ _218_/Y _224_/A VDD GND sg13g2_inv_1
X_149_ _157_/B _253_/Q _149_/B VDD GND sg13g2_xnor2_1
XFILLER_19_158 VDD GND sg13g2_decap_8
XFILLER_11_8 VDD GND sg13g2_fill_1
XFILLER_16_106 VDD GND sg13g2_decap_8
XFILLER_16_117 VDD GND sg13g2_fill_2
XFILLER_7_96 VDD GND sg13g2_decap_4
XFILLER_7_52 VDD GND sg13g2_fill_2
XFILLER_5_116 VDD GND sg13g2_fill_2
XFILLER_4_86 VDD GND sg13g2_decap_8
XFILLER_13_62 VDD GND sg13g2_decap_8
X_251_ _251_/Q _213_/A _251_/D _224_/Y VDD GND sg13g2_dfrbpq_1
X_182_ _256_/D _183_/B _182_/B VDD GND sg13g2_xnor2_1
XFILLER_8_0 VDD GND sg13g2_decap_8
XFILLER_1_7 VDD GND sg13g2_decap_4
X_234_ _234_/Y _241_/A VDD GND sg13g2_inv_1
X_165_ _170_/A _245_/Q _173_/B VDD GND sg13g2_nand2_1
XFILLER_1_87 VDD GND sg13g2_decap_8
XFILLER_10_52 VDD GND sg13g2_decap_8
X_217_ _217_/Y _224_/A VDD GND sg13g2_inv_1
X_148_ _149_/B _244_/Q _195_/B VDD GND sg13g2_xor2_1
XFILLER_19_83 VDD GND sg13g2_fill_2
XFILLER_19_137 VDD GND sg13g2_decap_8
XFILLER_12_165 VDD GND sg13g2_fill_2
XFILLER_4_65 VDD GND sg13g2_decap_8
X_250_ _250_/Q _250_/CLK _250_/D _223_/Y VDD GND sg13g2_dfrbpq_1
X_181_ _182_/B _180_/X _183_/A _171_/A VDD GND sg13g2_a21oi_1
XFILLER_1_153 VDD GND sg13g2_decap_8
X_233_ _233_/Y _239_/A VDD GND sg13g2_inv_1
X_164_ _172_/A _151_/A _160_/X _163_/X VDD GND sg13g2_a21oi_2
XFILLER_1_66 VDD GND sg13g2_decap_4
XFILLER_1_11 VDD GND sg13g2_fill_1
XFILLER_19_62 VDD GND sg13g2_decap_8
XFILLER_19_116 VDD GND sg13g2_decap_8
X_216_ _216_/Y _224_/A VDD GND sg13g2_inv_1
X_147_ _157_/A _252_/Q _140_/B _146_/X VDD GND sg13g2_a21oi_1
XFILLER_7_87 VDD GND sg13g2_decap_4
XFILLER_16_0 VDD GND sg13g2_decap_8
XFILLER_16_85 VDD GND sg13g2_decap_8
XFILLER_5_129 VDD GND sg13g2_decap_8
XFILLER_4_44 VDD GND sg13g2_decap_8
XFILLER_4_162 VDD GND sg13g2_decap_4
XFILLER_13_97 VDD GND sg13g2_decap_8
Xfanout10 _241_/A _239_/A VDD GND sg13g2_buf_1
X_180_ _180_/X _151_/A _160_/X _163_/X VDD GND sg13g2_a21o_1
XFILLER_1_132 VDD GND sg13g2_decap_8
X_232_ _232_/Y _232_/A VDD GND sg13g2_inv_1
X_163_ _163_/X _157_/Y _161_/Y _162_/Y VDD GND sg13g2_a21o_2
XFILLER_10_21 VDD GND sg13g2_decap_4
XFILLER_19_41 VDD GND sg13g2_decap_8
X_215_ _215_/Y _224_/A VDD GND sg13g2_inv_1
X_146_ _146_/X _243_/Q _173_/B VDD GND sg13g2_and2_1
XFILLER_15_153 VDD GND sg13g2_decap_8
X_129_ _262_/D _262_/Q _261_/Q _128_/Y VDD GND sg13g2_a21oi_1
XFILLER_8_116 VDD GND sg13g2_decap_8
XFILLER_4_23 VDD GND sg13g2_decap_8
XFILLER_4_141 VDD GND sg13g2_decap_8
Xfanout11 _239_/A input2/X VDD GND sg13g2_buf_1
XFILLER_13_76 VDD GND sg13g2_decap_8
XFILLER_1_111 VDD GND sg13g2_decap_8
X_231_ _231_/Y _232_/A VDD GND sg13g2_inv_1
X_162_ _162_/Y _162_/A _162_/B VDD GND sg13g2_nor2_1
XFILLER_1_46 VDD GND sg13g2_decap_4
XFILLER_10_66 VDD GND sg13g2_decap_8
XFILLER_10_88 VDD GND sg13g2_decap_8
Xinput1 _125_/S en VDD GND sg13g2_buf_1
X_214_ _267_/D _267_/Q VDD GND sg13g2_inv_1
X_145_ _151_/A _143_/Y _142_/B _144_/Y VDD GND sg13g2_a21o_2
XFILLER_18_162 VDD GND sg13g2_decap_4
XFILLER_15_132 VDD GND sg13g2_decap_8
X_128_ _128_/Y _262_/Q _261_/Q _127_/Y VDD GND sg13g2_o21ai_1
XFILLER_7_45 VDD GND sg13g2_decap_8
XFILLER_5_109 VDD GND sg13g2_decap_8
XFILLER_4_79 VDD GND sg13g2_decap_8
X_230_ _230_/Y _241_/A VDD GND sg13g2_inv_1
X_161_ _161_/Y _162_/A _162_/B VDD GND sg13g2_nand2_1
Xinput2 input2/X rst VDD GND sg13g2_buf_1
X_213_ _260_/D _213_/A VDD GND sg13g2_inv_1
X_144_ _144_/Y _144_/A _144_/B VDD GND sg13g2_nor2_1
XFILLER_19_76 VDD GND sg13g2_decap_8
XFILLER_18_130 VDD GND sg13g2_decap_4
XFILLER_15_111 VDD GND sg13g2_decap_8
X_127_ _127_/Y _263_/Q _262_/Q VDD GND sg13g2_nand2_1
XFILLER_16_33 VDD GND sg13g2_decap_4
XFILLER_16_99 VDD GND sg13g2_decap_8
XFILLER_14_0 VDD GND sg13g2_decap_8
XFILLER_4_58 VDD GND sg13g2_decap_8
XFILLER_4_121 VDD GND sg13g2_fill_1
XFILLER_13_34 VDD GND sg13g2_fill_2
XFILLER_13_45 VDD GND sg13g2_decap_4
XFILLER_1_146 VDD GND sg13g2_decap_8
X_160_ _160_/X _160_/A _160_/B VDD GND sg13g2_and2_1
Xinput3 input3/X sdata VDD GND sg13g2_buf_1
X_212_ _268_/D _268_/Q VDD GND sg13g2_inv_1
X_143_ _143_/Y _143_/A VDD GND sg13g2_inv_1
XFILLER_19_55 VDD GND sg13g2_decap_8
X_126_ _261_/D _263_/Q _262_/Q _261_/Q VDD GND sg13g2_a21oi_1
XFILLER_16_78 VDD GND sg13g2_decap_8
XFILLER_4_37 VDD GND sg13g2_decap_8
XFILLER_4_166 VDD GND sg13g2_fill_1
XFILLER_4_155 VDD GND sg13g2_decap_8
XFILLER_4_100 VDD GND sg13g2_decap_8
XFILLER_1_125 VDD GND sg13g2_decap_8
XFILLER_10_14 VDD GND sg13g2_decap_8
XFILLER_10_25 VDD GND sg13g2_fill_2
X_211_ _265_/D _264_/Q VDD GND sg13g2_inv_1
X_142_ _252_/D _143_/A _142_/B VDD GND sg13g2_xnor2_1
XFILLER_4_0 VDD GND sg13g2_decap_8
XFILLER_15_146 VDD GND sg13g2_decap_8
X_125_ _242_/D _242_/Q input3/X _125_/S VDD GND sg13g2_mux2_1
XFILLER_7_37 VDD GND sg13g2_decap_4
XFILLER_20_160 VDD GND sg13g2_decap_8
XFILLER_7_131 VDD GND sg13g2_decap_4
XFILLER_4_134 VDD GND sg13g2_decap_8
XFILLER_13_36 VDD GND sg13g2_fill_1
XFILLER_13_69 VDD GND sg13g2_decap_8
XFILLER_5_81 VDD GND sg13g2_decap_8
XFILLER_6_4 VDD GND sg13g2_decap_4
XFILLER_1_39 VDD GND sg13g2_decap_8
XFILLER_10_59 VDD GND sg13g2_decap_8
X_210_ _251_/D _242_/Q _210_/B VDD GND sg13g2_xnor2_1
X_141_ _142_/B _144_/A _144_/B VDD GND sg13g2_xor2_1
XFILLER_18_166 VDD GND sg13g2_fill_1
XFILLER_15_125 VDD GND sg13g2_decap_8
X_124_ _243_/D _243_/Q _242_/Q _125_/S VDD GND sg13g2_mux2_1
XFILLER_12_0 VDD GND sg13g2_decap_4
XFILLER_5_60 VDD GND sg13g2_decap_8
XFILLER_19_69 VDD GND sg13g2_decap_8
X_140_ _144_/B _252_/Q _140_/B VDD GND sg13g2_xnor2_1
XFILLER_18_134 VDD GND sg13g2_fill_1
XFILLER_18_101 VDD GND sg13g2_fill_2
XFILLER_15_104 VDD GND sg13g2_decap_8
XFILLER_11_81 VDD GND sg13g2_decap_8
XFILLER_16_7 VDD GND sg13g2_fill_2
X_123_ _244_/D _244_/Q _243_/Q _125_/S VDD GND sg13g2_mux2_1
XFILLER_12_107 VDD GND sg13g2_fill_1
XFILLER_16_26 VDD GND sg13g2_decap_8
XFILLER_16_37 VDD GND sg13g2_fill_2
XFILLER_7_166 VDD GND sg13g2_fill_1
XFILLER_7_100 VDD GND sg13g2_fill_1
XFILLER_4_114 VDD GND sg13g2_decap_8
XFILLER_1_139 VDD GND sg13g2_decap_8
XFILLER_19_48 VDD GND sg13g2_decap_8
XFILLER_19_26 VDD GND sg13g2_decap_8
X_199_ _201_/A _200_/A _200_/B _200_/C VDD GND sg13g2_a21oi_1
X_268_ _268_/Q _267_/Q _268_/D _241_/Y VDD GND sg13g2_dfrbpq_1
XFILLER_11_60 VDD GND sg13g2_decap_8
X_122_ _245_/D _245_/Q _244_/Q _125_/S VDD GND sg13g2_mux2_1
XFILLER_2_0 VDD GND sg13g2_fill_2
XFILLER_7_123 VDD GND sg13g2_fill_2
XFILLER_8_72 VDD GND sg13g2_decap_4
XFILLER_4_148 VDD GND sg13g2_decap_8
XFILLER_1_118 VDD GND sg13g2_decap_8
XFILLER_0_162 VDD GND sg13g2_decap_4
XFILLER_5_95 VDD GND sg13g2_decap_8
X_198_ _200_/C _258_/Q _198_/B VDD GND sg13g2_xnor2_1
X_267_ _267_/Q freq_in _267_/D _240_/Y VDD GND sg13g2_dfrbpq_1
XFILLER_15_139 VDD GND sg13g2_decap_8
X_121_ _246_/D _246_/Q _245_/Q _125_/S VDD GND sg13g2_mux2_1
XFILLER_20_153 VDD GND sg13g2_decap_8
XFILLER_11_120 VDD GND sg13g2_fill_1
XFILLER_7_135 VDD GND sg13g2_fill_1
XFILLER_4_127 VDD GND sg13g2_decap_8
XFILLER_0_141 VDD GND sg13g2_decap_8
XFILLER_10_0 VDD GND sg13g2_decap_8
XFILLER_5_74 VDD GND sg13g2_decap_8
XFILLER_6_8 VDD GND sg13g2_fill_1
X_197_ _198_/B _249_/Q _259_/Q VDD GND sg13g2_xnor2_1
X_266_ _266_/Q _268_/Q _266_/D _239_/Y VDD GND sg13g2_dfrbpq_1
XFILLER_11_40 VDD GND sg13g2_decap_8
XFILLER_11_51 VDD GND sg13g2_fill_1
XFILLER_11_95 VDD GND sg13g2_decap_8
XFILLER_15_118 VDD GND sg13g2_decap_8
X_120_ _247_/D _247_/Q _246_/Q _125_/S VDD GND sg13g2_mux2_1
XFILLER_2_2 VDD GND sg13g2_fill_1
XFILLER_14_162 VDD GND sg13g2_decap_4
X_249_ _249_/Q _250_/CLK _249_/D _222_/Y VDD GND sg13g2_dfrbpq_1
XFILLER_20_132 VDD GND sg13g2_decap_8
XFILLER_14_7 VDD GND sg13g2_fill_2
XFILLER_7_125 VDD GND sg13g2_fill_1
XFILLER_17_94 VDD GND sg13g2_decap_8
XFILLER_12_4 VDD GND sg13g2_fill_1
XFILLER_0_120 VDD GND sg13g2_decap_8
XFILLER_5_53 VDD GND sg13g2_decap_8
X_196_ _200_/B _257_/Q _196_/B VDD GND sg13g2_nand2_1
X_265_ _266_/D _268_/Q _265_/D _238_/Y VDD GND sg13g2_dfrbpq_1
XFILLER_11_74 VDD GND sg13g2_decap_8
XFILLER_14_141 VDD GND sg13g2_decap_8
X_248_ _248_/Q _250_/CLK _248_/D _221_/Y VDD GND sg13g2_dfrbpq_1
X_179_ _183_/B _179_/A _179_/B VDD GND sg13g2_nor2_1
XFILLER_16_19 VDD GND sg13g2_decap_8
XFILLER_20_111 VDD GND sg13g2_decap_8
XFILLER_0_0 VDD GND sg13g2_decap_8
XFILLER_11_166 VDD GND sg13g2_fill_1
XFILLER_8_64 VDD GND sg13g2_fill_2
XFILLER_4_107 VDD GND sg13g2_decap_8
XFILLER_5_21 VDD GND sg13g2_decap_8
XFILLER_19_19 VDD GND sg13g2_decap_8
XFILLER_4_7 VDD GND sg13g2_fill_2
X_195_ _200_/A _248_/Q _195_/B VDD GND sg13g2_nand2_1
X_264_ _264_/Q _268_/Q _264_/D _237_/Y VDD GND sg13g2_dfrbpq_1
X_247_ _247_/Q _250_/CLK _247_/D _220_/Y VDD GND sg13g2_dfrbpq_1
X_178_ _179_/B _184_/A _184_/B _184_/C VDD GND sg13g2_a21oi_1
XFILLER_7_116 VDD GND sg13g2_fill_2
XFILLER_17_52 VDD GND sg13g2_decap_8
XFILLER_0_155 VDD GND sg13g2_decap_8
XFILLER_0_166 VDD GND sg13g2_fill_1
XFILLER_5_88 VDD GND sg13g2_decap_8
X_194_ _257_/D _194_/A _204_/A VDD GND sg13g2_xor2_1
X_263_ _263_/Q _266_/Q _263_/D _236_/Y VDD GND sg13g2_dfrbpq_1
XFILLER_17_151 VDD GND sg13g2_decap_8
XFILLER_14_121 VDD GND sg13g2_fill_2
X_246_ _246_/Q _246_/CLK _246_/D _219_/Y VDD GND sg13g2_dfrbpq_1
X_177_ _179_/A _184_/A _184_/B _184_/C VDD GND sg13g2_and3_1
XFILLER_20_146 VDD GND sg13g2_decap_8
XFILLER_11_102 VDD GND sg13g2_decap_8
X_229_ _229_/Y _241_/A VDD GND sg13g2_inv_1
XFILLER_8_66 VDD GND sg13g2_fill_1
XFILLER_3_120 VDD GND sg13g2_fill_2
XFILLER_0_134 VDD GND sg13g2_decap_8
XFILLER_5_67 VDD GND sg13g2_decap_8
XFILLER_14_54 VDD GND sg13g2_decap_4
XFILLER_14_65 VDD GND sg13g2_decap_4
X_193_ _204_/A _193_/A _192_/Y VDD GND sg13g2_nor2b_1
X_262_ _262_/Q _266_/Q _262_/D _235_/Y VDD GND sg13g2_dfrbpq_1
XFILLER_4_9 VDD GND sg13g2_fill_1
XFILLER_2_46 VDD GND sg13g2_fill_2
XFILLER_11_33 VDD GND sg13g2_decap_8
XFILLER_11_88 VDD GND sg13g2_decap_8
XFILLER_14_155 VDD GND sg13g2_decap_8
XFILLER_14_166 VDD GND sg13g2_fill_1
X_245_ _245_/Q _246_/CLK _245_/D _218_/Y VDD GND sg13g2_dfrbpq_1
X_176_ _184_/C _256_/Q _188_/B VDD GND sg13g2_xnor2_1
XFILLER_20_125 VDD GND sg13g2_decap_8
XFILLER_7_118 VDD GND sg13g2_fill_1
X_228_ _228_/Y _239_/A VDD GND sg13g2_inv_1
X_159_ _254_/D _160_/B _159_/B VDD GND sg13g2_xnor2_1
Xclkbuf_0_sclk clkbuf_0_sclk/X sclk VDD GND sg13g2_buf_16
XFILLER_3_165 VDD GND sg13g2_fill_2
XFILLER_0_113 VDD GND sg13g2_decap_8
X_192_ _192_/Y _192_/A _192_/B _192_/C VDD GND sg13g2_nand3_1
X_261_ _261_/Q _266_/Q _261_/D _234_/Y VDD GND sg13g2_dfrbpq_1
XFILLER_9_0 VDD GND sg13g2_decap_8
XFILLER_11_67 VDD GND sg13g2_decap_8
XFILLER_14_134 VDD GND sg13g2_decap_8
X_244_ _244_/Q _246_/CLK _244_/D _217_/Y VDD GND sg13g2_dfrbpq_1
X_175_ _188_/B _247_/Q _195_/B VDD GND sg13g2_xor2_1
XFILLER_20_104 VDD GND sg13g2_decap_8
X_227_ _227_/Y _239_/A VDD GND sg13g2_inv_1
X_158_ _159_/B _151_/A _160_/A _157_/Y VDD GND sg13g2_a21oi_1
XFILLER_6_152 VDD GND sg13g2_fill_1
XFILLER_5_14 VDD GND sg13g2_decap_8
X_260_ _260_/Q _263_/Q _260_/D _233_/Y VDD GND sg13g2_dfrbpq_1
XFILLER_17_165 VDD GND sg13g2_fill_2
X_191_ _193_/A _192_/A _192_/B _192_/C VDD GND sg13g2_a21oi_1
XFILLER_2_48 VDD GND sg13g2_fill_1
X_243_ _243_/Q _246_/CLK _243_/D _216_/Y VDD GND sg13g2_dfrbpq_1
X_174_ _184_/B _255_/Q _174_/B VDD GND sg13g2_nand2_1
XFILLER_11_116 VDD GND sg13g2_decap_4
XFILLER_3_91 VDD GND sg13g2_decap_8
X_226_ _226_/Y _239_/A VDD GND sg13g2_inv_1
X_157_ _157_/Y _157_/A _157_/B VDD GND sg13g2_nor2_1
XFILLER_6_164 VDD GND sg13g2_fill_2
XFILLER_17_45 VDD GND sg13g2_decap_8
XFILLER_0_70 VDD GND sg13g2_decap_4
XFILLER_0_92 VDD GND sg13g2_decap_8
XFILLER_17_0 VDD GND sg13g2_decap_4
X_209_ _259_/D _209_/A _209_/B VDD GND sg13g2_xnor2_1
XFILLER_0_148 VDD GND sg13g2_decap_8
XFILLER_10_7 VDD GND sg13g2_decap_8
X_190_ _192_/C _257_/Q _196_/B VDD GND sg13g2_xnor2_1
XFILLER_11_47 VDD GND sg13g2_decap_4
XFILLER_14_114 VDD GND sg13g2_decap_8
X_242_ _242_/Q _246_/CLK _242_/D _215_/Y VDD GND sg13g2_dfrbpq_1
X_173_ _184_/A _246_/Q _173_/B VDD GND sg13g2_nand2_1
XFILLER_20_139 VDD GND sg13g2_decap_8
XFILLER_10_161 VDD GND sg13g2_decap_4
X_225_ _225_/Y _239_/A VDD GND sg13g2_inv_1
X_156_ _160_/B _162_/A _162_/B VDD GND sg13g2_xor2_1
XFILLER_8_48 VDD GND sg13g2_fill_2
XFILLER_8_37 VDD GND sg13g2_fill_2
XFILLER_19_4 VDD GND sg13g2_decap_4
X_208_ _209_/B _250_/Q _208_/B VDD GND sg13g2_xor2_1
X_139_ _140_/B _243_/Q _173_/B VDD GND sg13g2_xor2_1
XFILLER_0_127 VDD GND sg13g2_decap_8
XFILLER_14_47 VDD GND sg13g2_fill_2
XFILLER_14_58 VDD GND sg13g2_fill_2
XFILLER_17_112 VDD GND sg13g2_fill_2
XFILLER_15_90 VDD GND sg13g2_decap_8
XFILLER_11_26 VDD GND sg13g2_decap_8
XFILLER_14_148 VDD GND sg13g2_decap_8
X_241_ _241_/Y _241_/A VDD GND sg13g2_inv_1
X_172_ _255_/D _172_/A _183_/A VDD GND sg13g2_xnor2_1
XFILLER_9_152 VDD GND sg13g2_decap_8
XFILLER_7_0 VDD GND sg13g2_decap_8
XFILLER_20_118 VDD GND sg13g2_decap_8
XFILLER_0_7 VDD GND sg13g2_decap_8
X_224_ _224_/Y _224_/A VDD GND sg13g2_inv_1
X_155_ _162_/B _254_/Q _166_/B VDD GND sg13g2_xnor2_1
XFILLER_6_166 VDD GND sg13g2_fill_1
XFILLER_3_114 VDD GND sg13g2_fill_1
X_207_ _208_/B _258_/Q _198_/B _206_/Y VDD GND sg13g2_a21oi_1
X_138_ _144_/A _173_/B _251_/Q VDD GND sg13g2_nor2_1
XFILLER_0_106 VDD GND sg13g2_decap_8
XFILLER_20_91 VDD GND sg13g2_fill_2
XFILLER_14_127 VDD GND sg13g2_decap_8
X_240_ _240_/Y _241_/A VDD GND sg13g2_inv_1
X_171_ _183_/A _171_/A _170_/Y VDD GND sg13g2_nor2b_1
X_223_ _223_/Y _232_/A VDD GND sg13g2_inv_1
XFILLER_8_39 VDD GND sg13g2_fill_1
XFILLER_12_70 VDD GND sg13g2_decap_8
X_154_ _166_/B _245_/Q _173_/B VDD GND sg13g2_xor2_1
XFILLER_6_145 VDD GND sg13g2_decap_8
X_206_ _206_/Y _259_/Q _249_/Q VDD GND sg13g2_nor2b_1
X_137_ _143_/A _210_/B _242_/Q VDD GND sg13g2_nand2b_1
XFILLER_9_93 VDD GND sg13g2_decap_8
XFILLER_15_0 VDD GND sg13g2_decap_8
XFILLER_14_49 VDD GND sg13g2_fill_1
XFILLER_20_70 VDD GND sg13g2_decap_8
XFILLER_6_61 VDD GND sg13g2_decap_8
XFILLER_17_158 VDD GND sg13g2_decap_8
X_170_ _170_/Y _170_/A _170_/B _170_/C VDD GND sg13g2_nand3_1
XFILLER_9_121 VDD GND sg13g2_decap_8
XFILLER_3_84 VDD GND sg13g2_decap_8
XFILLER_11_109 VDD GND sg13g2_decap_8
X_222_ _222_/Y _232_/A VDD GND sg13g2_inv_1
X_153_ _162_/A _253_/Q _149_/B _152_/X VDD GND sg13g2_a21oi_1
XFILLER_6_157 VDD GND sg13g2_decap_8
XFILLER_6_113 VDD GND sg13g2_fill_1
X_205_ _209_/A _193_/A _200_/Y _204_/X _194_/A _201_/A VDD GND sg13g2_a221oi_1
X_136_ _210_/B _173_/B _251_/Q VDD GND sg13g2_xor2_1
XFILLER_0_63 VDD GND sg13g2_decap_8
XFILLER_0_74 VDD GND sg13g2_fill_1
XFILLER_0_85 VDD GND sg13g2_decap_8
X_119_ _248_/D _248_/Q _247_/Q _125_/S VDD GND sg13g2_mux2_1
XFILLER_6_84 VDD GND sg13g2_fill_1
XFILLER_6_40 VDD GND sg13g2_decap_8
XFILLER_17_104 VDD GND sg13g2_fill_1
XFILLER_14_107 VDD GND sg13g2_decap_8
XFILLER_9_166 VDD GND sg13g2_fill_1
XFILLER_9_100 VDD GND sg13g2_decap_8
XFILLER_3_63 VDD GND sg13g2_decap_4
XFILLER_10_154 VDD GND sg13g2_decap_8
XFILLER_10_165 VDD GND sg13g2_fill_2
X_221_ _221_/Y _224_/A VDD GND sg13g2_inv_1
X_152_ _152_/X _244_/Q _195_/B VDD GND sg13g2_and2_1
XFILLER_5_0 VDD GND sg13g2_decap_8
XFILLER_19_8 VDD GND sg13g2_fill_1
XFILLER_17_39 VDD GND sg13g2_fill_1
X_204_ _204_/X _204_/A _204_/B VDD GND sg13g2_and2_1
XFILLER_0_42 VDD GND sg13g2_decap_8
X_135_ _264_/D _266_/D _135_/B VDD GND sg13g2_and2_1
XFILLER_9_40 VDD GND sg13g2_decap_8
X_118_ _249_/D _249_/Q _248_/Q _125_/S VDD GND sg13g2_mux2_1
XFILLER_6_96 VDD GND sg13g2_fill_2
XFILLER_20_0 VDD GND sg13g2_decap_8
Xclkbuf_1_1__f_sclk _250_/CLK clkbuf_0_sclk/X VDD GND sg13g2_buf_16
XFILLER_9_7 VDD GND sg13g2_fill_2
XFILLER_15_83 VDD GND sg13g2_decap_8
XFILLER_11_19 VDD GND sg13g2_decap_8
XFILLER_13_163 VDD GND sg13g2_decap_4
XFILLER_9_145 VDD GND sg13g2_decap_8
XFILLER_3_53 VDD GND sg13g2_decap_4
X_220_ _220_/Y _224_/A VDD GND sg13g2_inv_1
X_151_ _253_/D _151_/A _160_/A VDD GND sg13g2_xor2_1
XFILLER_3_107 VDD GND sg13g2_decap_8
XFILLER_0_21 VDD GND sg13g2_decap_8
X_203_ _258_/D _204_/B _203_/B VDD GND sg13g2_xnor2_1
X_134_ _135_/B _195_/B _127_/Y _133_/Y VDD GND sg13g2_o21ai_1
XFILLER_2_162 VDD GND sg13g2_fill_1
XFILLER_2_151 VDD GND sg13g2_decap_8
XFILLER_2_140 VDD GND sg13g2_fill_1
X_117_ _250_/D _250_/Q _249_/Q _125_/S VDD GND sg13g2_mux2_1
XFILLER_18_50 VDD GND sg13g2_decap_4
XFILLER_20_84 VDD GND sg13g2_decap_8
XFILLER_17_117 VDD GND sg13g2_fill_1
Xoutput4 freq_out _213_/A VDD GND sg13g2_buf_1
XFILLER_16_161 VDD GND sg13g2_decap_4
XFILLER_13_142 VDD GND sg13g2_decap_8
XFILLER_9_135 VDD GND sg13g2_decap_8
XFILLER_3_98 VDD GND sg13g2_fill_1
XFILLER_10_123 VDD GND sg13g2_decap_8
XFILLER_10_134 VDD GND sg13g2_decap_4
XFILLER_12_63 VDD GND sg13g2_decap_8
X_150_ _160_/A _157_/A _157_/B VDD GND sg13g2_xor2_1
XFILLER_6_138 VDD GND sg13g2_decap_8
X_202_ _203_/B _194_/A _204_/A _193_/A VDD GND sg13g2_a21oi_1
X_133_ _133_/Y _261_/Q _266_/Q _133_/C VDD GND sg13g2_nor3_1
XFILLER_0_99 VDD GND sg13g2_decap_8
XFILLER_9_86 VDD GND sg13g2_decap_8
Xfanout5 _173_/B _195_/B VDD GND sg13g2_buf_1
XFILLER_6_54 VDD GND sg13g2_decap_8
XFILLER_20_63 VDD GND sg13g2_decap_8
XFILLER_15_63 VDD GND sg13g2_fill_1
XFILLER_9_114 VDD GND sg13g2_decap_8
XFILLER_10_102 VDD GND sg13g2_decap_8
XFILLER_6_106 VDD GND sg13g2_decap_8
XFILLER_12_53 VDD GND sg13g2_fill_1
XFILLER_5_150 VDD GND sg13g2_decap_8
X_201_ _204_/B _201_/A _200_/Y VDD GND sg13g2_nor2b_1
X_132_ _133_/C _263_/Q _262_/Q VDD GND sg13g2_nor2_1
XFILLER_3_0 VDD GND sg13g2_decap_8
XFILLER_0_56 VDD GND sg13g2_decap_8
XFILLER_0_78 VDD GND sg13g2_decap_8
Xfanout6 _195_/B _259_/Q VDD GND sg13g2_buf_1
XFILLER_20_97 VDD GND sg13g2_decap_8
XFILLER_20_42 VDD GND sg13g2_decap_8
XFILLER_6_77 VDD GND sg13g2_decap_8
XFILLER_6_33 VDD GND sg13g2_decap_8
XFILLER_15_42 VDD GND sg13g2_decap_8
XFILLER_15_97 VDD GND sg13g2_decap_8
XFILLER_17_108 VDD GND sg13g2_decap_4
.ends




************************************************************************
* Library Name: sg13g2_stdcell
* Cell Name:    sg13g2_a21o_1
* View Name:    schematic
************************************************************************

.SUBCKT sg13g2_a21o_1 X A1 A2 B1 VDD VSS
*.PININFO A1:I A2:I B1:I X:O VDD:B VSS:B
MN0 net1 A1 net2 VSS sg13_lv_nmos m=1 w=640.00n l=130.00n ng=1
MN1 net2 A2 VSS VSS sg13_lv_nmos m=1 w=640.00n l=130.00n ng=1
MN2 net1 B1 VSS VSS sg13_lv_nmos m=1 w=640.00n l=130.00n ng=1
MN3 X net1 VSS VSS sg13_lv_nmos m=1 w=740.00n l=130.00n ng=1
MP2 net1 B1 net3 VDD sg13_lv_pmos m=1 w=1.000u l=130.00n ng=1
MP0 net3 A1 VDD VDD sg13_lv_pmos m=1 w=1.000u l=130.00n ng=1
MP1 net3 A2 VDD VDD sg13_lv_pmos m=1 w=1.000u l=130.00n ng=1
MP3 X net1 VDD VDD sg13_lv_pmos m=1 w=1.12u l=130.00n ng=1
.ENDS

************************************************************************
* Library Name: sg13g2_stdcell
* Cell Name:    sg13g2_a21o_2
* View Name:    schematic
************************************************************************

.SUBCKT sg13g2_a21o_2 X A1 A2 B1 VDD VSS
*.PININFO A1:I A2:I B1:I X:O VDD:B VSS:B
MN0 net1 A1 net2 VSS sg13_lv_nmos m=1 w=740.00n l=130.00n ng=1
MN1 net2 A2 VSS VSS sg13_lv_nmos m=1 w=740.00n l=130.00n ng=1
MN2 net1 B1 VSS VSS sg13_lv_nmos m=1 w=740.00n l=130.00n ng=1
MN3 X net1 VSS VSS sg13_lv_nmos m=1 w=1.48u l=130.00n ng=2
MP2 net1 B1 net3 VDD sg13_lv_pmos m=1 w=1.000u l=130.00n ng=1
MP0 net3 A1 VDD VDD sg13_lv_pmos m=1 w=1.000u l=130.00n ng=1
MP1 net3 A2 VDD VDD sg13_lv_pmos m=1 w=1.000u l=130.00n ng=1
MP3 X net1 VDD VDD sg13_lv_pmos m=1 w=2.24u l=130.00n ng=2
.ENDS

************************************************************************
* Library Name: sg13g2_stdcell
* Cell Name:    sg13g2_a21oi_1
* View Name:    schematic
************************************************************************

.SUBCKT sg13g2_a21oi_1 Y A1 A2 B1 VDD VSS
*.PININFO A1:I A2:I B1:I Y:O VDD:B VSS:B
MN0 Y B1 VSS VSS sg13_lv_nmos m=1 w=740.00n l=130.00n ng=1
MN2 net1 A2 VSS VSS sg13_lv_nmos m=1 w=740.00n l=130.00n ng=1
MN1 Y A1 net1 VSS sg13_lv_nmos m=1 w=740.00n l=130.00n ng=1
MP2 Y B1 net2 VDD sg13_lv_pmos m=1 w=1.12u l=130.00n ng=1
MP1 net2 A2 VDD VDD sg13_lv_pmos m=1 w=1.12u l=130.00n ng=1
MP0 net2 A1 VDD VDD sg13_lv_pmos m=1 w=1.12u l=130.00n ng=1
.ENDS

************************************************************************
* Library Name: sg13g2_stdcell
* Cell Name:    sg13g2_a21oi_2
* View Name:    schematic
************************************************************************

.SUBCKT sg13g2_a21oi_2 Y A1 A2 B1 VDD VSS
*.PININFO A1:I A2:I B1:I Y:O VDD:B VSS:B
MN0 Y B1 VSS VSS sg13_lv_nmos m=1 w=1.48u l=130.00n ng=2
MN2 net2 A2 VSS VSS sg13_lv_nmos m=1 w=1.48u l=130.00n ng=2
MN1 Y A1 net2 VSS sg13_lv_nmos m=1 w=1.48u l=130.00n ng=2
MP2 Y B1 net1 VDD sg13_lv_pmos m=1 w=2.24u l=130.00n ng=2
MP1 net1 A2 VDD VDD sg13_lv_pmos m=1 w=2.24u l=130.00n ng=2
MP0 net1 A1 VDD VDD sg13_lv_pmos m=1 w=2.24u l=130.00n ng=2
.ENDS

************************************************************************
* Library Name: sg13g2_stdcell
* Cell Name:    sg13g2_a221oi_1
* View Name:    schematic
************************************************************************

.SUBCKT sg13g2_a221oi_1 Y A1 A2 B1 B2 C1 VDD VSS
*.PININFO A1:I A2:I B1:I B2:I C1:I Y:O VDD:B VSS:B
MP2 Y C1 net3 VDD sg13_lv_pmos m=1 w=1.12u l=130.00n ng=1
MP4 net3 B2 net1 VDD sg13_lv_pmos m=1 w=1.12u l=130.00n ng=1
MP1 net3 B1 net1 VDD sg13_lv_pmos m=1 w=1.12u l=130.00n ng=1
MP3 net1 A2 VDD VDD sg13_lv_pmos m=1 w=1.12u l=130.00n ng=1
MP0 net1 A1 VDD VDD sg13_lv_pmos m=1 w=1.12u l=130.00n ng=1
MN4 Y C1 VSS VSS sg13_lv_nmos m=1 w=740.00n l=130.00n ng=1
MN3 net4 B2 VSS VSS sg13_lv_nmos m=1 w=740.00n l=130.00n ng=1
MN2 Y B1 net4 VSS sg13_lv_nmos m=1 w=740.00n l=130.00n ng=1
MN1 net2 A2 VSS VSS sg13_lv_nmos m=1 w=740.00n l=130.00n ng=1
MN0 Y A1 net2 VSS sg13_lv_nmos m=1 w=740.00n l=130.00n ng=1
.ENDS

************************************************************************
* Library Name: sg13g2_stdcell
* Cell Name:    sg13g2_and2_1
* View Name:    schematic
************************************************************************

.SUBCKT sg13g2_and2_1 X A B VDD VSS
*.PININFO A:I B:I X:O VDD:B VSS:B
MN0 net4 A net2 VSS sg13_lv_nmos m=1 w=640.00n l=130.00n ng=1
MN2 X net4 VSS VSS sg13_lv_nmos m=1 w=740.00n l=130.00n ng=1
MN1 net2 B VSS VSS sg13_lv_nmos m=1 w=640.00n l=130.00n ng=1
MP0 net4 B VDD VDD sg13_lv_pmos m=1 w=840.00n l=130.00n ng=1
MP2 X net4 VDD VDD sg13_lv_pmos m=1 w=1.12u l=130.00n ng=1
MP1 net4 A VDD VDD sg13_lv_pmos m=1 w=840.00n l=130.00n ng=1
.ENDS

************************************************************************
* Library Name: sg13g2_stdcell
* Cell Name:    sg13g2_and2_2
* View Name:    schematic
************************************************************************

.SUBCKT sg13g2_and2_2 X A B VDD VSS
*.PININFO A:I B:I X:O VDD:B VSS:B
MN0 net1 A net2 VSS sg13_lv_nmos m=1 w=640.00n l=130.00n ng=1
MN2 X net1 VSS VSS sg13_lv_nmos m=1 w=1.48u l=130.00n ng=2
MN1 net2 B VSS VSS sg13_lv_nmos m=1 w=640.00n l=130.00n ng=1
MP0 net1 B VDD VDD sg13_lv_pmos m=1 w=840.00n l=130.00n ng=1
MP2 X net1 VDD VDD sg13_lv_pmos m=1 w=2.24u l=130.00n ng=2
MP1 net1 A VDD VDD sg13_lv_pmos m=1 w=840.00n l=130.00n ng=1
.ENDS

************************************************************************
* Library Name: sg13g2_stdcell
* Cell Name:    sg13g2_and3_1
* View Name:    schematic
************************************************************************

.SUBCKT sg13g2_and3_1 X A B C VDD VSS
*.PININFO A:I B:I C:I X:O VDD:B VSS:B
MN2 net3 C VSS VSS sg13_lv_nmos m=1 w=640.00n l=130.00n ng=1
MN3 X net2 VSS VSS sg13_lv_nmos m=1 w=740.00n l=130.00n ng=1
MN0 net2 A net1 VSS sg13_lv_nmos m=1 w=640.00n l=130.00n ng=1
MN1 net1 B net3 VSS sg13_lv_nmos m=1 w=640.00n l=130.00n ng=1
MP3 X net2 VDD VDD sg13_lv_pmos m=1 w=1.12u l=130.00n ng=1
MP1 net2 B VDD VDD sg13_lv_pmos m=1 w=840.00n l=130.00n ng=1
MP2 net2 A VDD VDD sg13_lv_pmos m=1 w=840.00n l=130.00n ng=1
MP0 net2 C VDD VDD sg13_lv_pmos m=1 w=840.00n l=130.00n ng=1
.ENDS

************************************************************************
* Library Name: sg13g2_stdcell
* Cell Name:    sg13g2_and3_2
* View Name:    schematic
************************************************************************

.SUBCKT sg13g2_and3_2 X A B C VDD VSS
*.PININFO A:I B:I C:I X:O VDD:B VSS:B
MN2 net3 C VSS VSS sg13_lv_nmos m=1 w=640.00n l=130.00n ng=1