* NGSPICE file created from dsm_and_freq_divider.ext - technology: ihp-sg13g2

.subckt dsm_and_freq_divider VGND VPWR en freq_in freq_out rst sclk sdata
X0 VGND VPWR VGND VGND sg13_lv_nmos ad=0.1428p pd=1.52u as=0.90596n ps=4.48705m w=0.42u l=1u
X1 VPWR a_13391_12287# a_13648_12430# VPWR sg13_lv_pmos ad=0.4659p pd=3.65u as=79.8f ps=0.8u w=0.42u l=0.13u
X2 VPWR _260_.CLK a_13804_10996# VPWR sg13_lv_pmos ad=0.4032p pd=2.96u as=0.1176p ps=1.33u w=1.12u l=0.13u
X3 VGND a_9808_16966# a_9457_16823# VGND sg13_lv_nmos ad=79.8f pd=0.8u as=0.1428p ps=1.52u w=0.42u l=0.13u
X4 VGND a_16079_8797# a_16746_8436# VGND sg13_lv_nmos ad=0.1406p pd=1.12u as=0.2516p ps=2.16u w=0.74u l=0.13u
X5 a_8709_16725# fanout7.A a_9169_16767# VGND sg13_lv_nmos ad=0.2516p pd=2.16u as=0.31732p ps=1.805u w=0.74u l=0.13u
X6 VPWR VGND VPWR VPWR sg13_lv_pmos ad=0.34p pd=2.68u as=1.19017n ps=5.16309m w=1u l=1u
X7 _124_.S a_1192_11460# VGND VGND sg13_lv_nmos ad=0.2886p pd=2.26u as=0.14875p ps=1.16u w=0.74u l=0.13u
X8 VPWR VGND VPWR VPWR sg13_lv_pmos ad=0.34p pd=2.68u as=0 ps=0 w=1u l=1u
X9 VPWR VGND VPWR VPWR sg13_lv_pmos ad=0.34p pd=2.68u as=0 ps=0 w=1u l=1u
X10 VPWR VGND VPWR VPWR sg13_lv_pmos ad=0.19p pd=1.38u as=0 ps=0 w=1u l=1u
X11 a_2232_15428# _124_.S VGND VGND sg13_lv_nmos ad=0.187p pd=1.78u as=0.18945p ps=1.27u w=0.55u l=0.13u
X12 a_15601_12231# a_15141_12189# a_15243_12332# VGND sg13_lv_nmos ad=0.31732p pd=1.805u as=0.2516p ps=2.16u w=0.74u l=0.13u
X13 VGND VPWR VGND VGND sg13_lv_nmos ad=0.1428p pd=1.52u as=0 ps=0 w=0.42u l=1u
X14 VGND VPWR VGND VGND sg13_lv_nmos ad=0.1428p pd=1.52u as=0 ps=0 w=0.42u l=1u
X15 a_10864_4870# _225_.Y a_10924_4965# VPWR sg13_lv_pmos ad=79.8f pd=0.8u as=0.204p ps=1.835u w=0.42u l=0.13u
X16 _131_.Y _131_.B1 VGND VGND sg13_lv_nmos ad=0.1406p pd=1.12u as=0.2516p ps=2.16u w=0.74u l=0.13u
X17 a_3380_13690# clkbuf_1_0__f_sclk.A VPWR VPWR sg13_lv_pmos ad=0.2128p pd=1.5u as=0.2128p ps=1.5u w=1.12u l=0.13u
X18 a_13464_12952# _131_.A2 VPWR VPWR sg13_lv_pmos ad=0.2128p pd=1.5u as=0.3808p ps=2.92u w=1.12u l=0.15u
X19 VGND _136_.B _138_.Y VGND sg13_lv_nmos ad=0.2516p pd=2.16u as=0.1406p ps=1.12u w=0.74u l=0.13u
X20 VGND VPWR VGND VGND sg13_lv_nmos ad=79.8f pd=0.8u as=0 ps=0 w=0.42u l=1u
X21 VPWR VGND VPWR VPWR sg13_lv_pmos ad=0.34p pd=2.68u as=0 ps=0 w=1u l=1u
X22 VGND VPWR VGND VGND sg13_lv_nmos ad=0.1428p pd=1.52u as=0 ps=0 w=0.42u l=1u
X23 VPWR a_2126_7864# _122_.X VPWR sg13_lv_pmos ad=0.2198p pd=1.52u as=0.6048p ps=3.32u w=1.12u l=0.13u
X24 VPWR _160_.X a_10895_8436# VPWR sg13_lv_pmos ad=0.2128p pd=1.5u as=0.3808p ps=2.92u w=1.12u l=0.13u
X25 VGND _148_.B a_12331_5760# VGND sg13_lv_nmos ad=0.1331p pd=1.12u as=0.1216p ps=1.02u w=0.64u l=0.13u
X26 VPWR VGND VPWR VPWR sg13_lv_pmos ad=0.34p pd=2.68u as=0 ps=0 w=1u l=1u
X27 a_14698_12433# a_15141_12189# a_15081_12601# VPWR sg13_lv_pmos ad=79.8f pd=0.8u as=63f ps=0.72u w=0.42u l=0.13u
X28 VGND VPWR VGND VGND sg13_lv_nmos ad=0.1428p pd=1.52u as=0 ps=0 w=0.42u l=1u
X29 VGND VPWR VGND VGND sg13_lv_nmos ad=79.8f pd=0.8u as=0 ps=0 w=0.42u l=1u
X30 a_14757_15213# _266_.CLK a_15217_15530# VPWR sg13_lv_pmos ad=0.4088p pd=2.97u as=0.41165p ps=2.12u w=1.12u l=0.13u
X31 VGND VPWR VGND VGND sg13_lv_nmos ad=0.1428p pd=1.52u as=0 ps=0 w=0.42u l=1u
X32 VPWR VGND VPWR VPWR sg13_lv_pmos ad=0.19p pd=1.38u as=0 ps=0 w=1u l=1u
X33 VGND _118_.A0 a_4661_17878# VGND sg13_lv_nmos ad=0.1898p pd=1.36u as=0.2516p ps=2.16u w=0.74u l=0.13u
X34 _208_.X a_4625_16800# a_4796_17044# VPWR sg13_lv_pmos ad=0.3808p pd=2.92u as=0.2128p ps=1.5u w=1.12u l=0.13u
X35 a_8292_17064# a_8266_16969# VGND VGND sg13_lv_nmos ad=0.2516p pd=2.16u as=0.1626p ps=1.415u w=0.74u l=0.13u
X36 a_12940_17061# a_12880_16966# a_12825_17061# VPWR sg13_lv_pmos ad=0.204p pd=1.835u as=93.45f ps=0.865u w=0.42u l=0.13u
X37 _247_.CLK a_3380_13690# VGND VGND sg13_lv_nmos ad=0.1406p pd=1.12u as=0.1406p ps=1.12u w=0.74u l=0.13u
X38 VGND VPWR VGND VGND sg13_lv_nmos ad=79.8f pd=0.8u as=0 ps=0 w=0.42u l=1u
X39 a_3025_16349# a_2565_16007# a_2667_16007# VGND sg13_lv_nmos ad=0.31732p pd=1.805u as=0.2516p ps=2.16u w=0.74u l=0.13u
X40 VGND _183_.Y a_8050_10326# VGND sg13_lv_nmos ad=0.1406p pd=1.12u as=0.1406p ps=1.12u w=0.74u l=0.15u
X41 a_16079_11821# a_15237_11471# a_15985_11821# VGND sg13_lv_nmos ad=0.12665p pd=1.145u as=0.1428p ps=1.52u w=0.42u l=0.13u
X42 VGND a_3886_10702# clkbuf_1_0__f_sclk.A VGND sg13_lv_nmos ad=0.1406p pd=1.12u as=0.1406p ps=1.12u w=0.74u l=0.13u
X43 a_10308_17933# a_10539_17519# a_9994_17476# VGND sg13_lv_nmos ad=0.2373p pd=1.97u as=79.8f ps=0.8u w=0.42u l=0.13u
X44 a_7634_8802# _168_.Y VGND VGND sg13_lv_nmos ad=0.1406p pd=1.12u as=0.2886p ps=2.26u w=0.74u l=0.13u
X45 VPWR _228_.Y a_9994_9409# VPWR sg13_lv_pmos ad=0.1563p pd=1.22u as=0.147p ps=1.54u w=0.42u l=0.13u
X46 VGND VPWR VGND VGND sg13_lv_nmos ad=0.1428p pd=1.52u as=0 ps=0 w=0.42u l=1u
X47 _241_.Y _236_.A VPWR VPWR sg13_lv_pmos ad=0.3808p pd=2.92u as=0.3808p ps=2.92u w=1.12u l=0.13u
X48 a_6528_8475# _168_.A VPWR VPWR sg13_lv_pmos ad=0.1596p pd=1.22u as=0.4536p ps=2.76u w=0.84u l=0.13u
X49 VGND VPWR VGND VGND sg13_lv_nmos ad=0.1428p pd=1.52u as=0 ps=0 w=0.42u l=1u
X50 VGND a_16079_9263# a_16746_9484# VGND sg13_lv_nmos ad=0.1406p pd=1.12u as=0.2516p ps=2.16u w=0.74u l=0.13u
X51 VPWR VGND VPWR VPWR sg13_lv_pmos ad=0.34p pd=2.68u as=0 ps=0 w=1u l=1u
X52 a_6949_5782# _210_.A VGND VGND sg13_lv_nmos ad=0.1406p pd=1.12u as=0.14505p ps=1.15u w=0.74u l=0.13u
X53 VGND _222_.Y a_1956_16746# VGND sg13_lv_nmos ad=0.1626p pd=1.415u as=60.89999f ps=0.71u w=0.42u l=0.13u
X54 VGND VPWR VGND VGND sg13_lv_nmos ad=0.1428p pd=1.52u as=0 ps=0 w=0.42u l=1u
X55 a_2301_4654# _124_.S VGND VGND sg13_lv_nmos ad=0.13135p pd=1.095u as=0.18945p ps=1.27u w=0.74u l=0.13u
X56 a_10737_3900# _243_.Q VPWR VPWR sg13_lv_pmos ad=0.1225p pd=1.245u as=0.36p ps=2.72u w=1u l=0.13u
X57 a_8501_10702# _181_.Y VGND VGND sg13_lv_nmos ad=0.1406p pd=1.12u as=0.1898p ps=1.36u w=0.74u l=0.13u
X58 a_2342_4338# a_3147_3911# a_2602_3868# VPWR sg13_lv_pmos ad=0.1428p pd=1.52u as=79.8f ps=0.8u w=0.42u l=0.13u
X59 a_7908_16000# a_8427_16007# a_9167_16357# VGND sg13_lv_nmos ad=0.3473p pd=2.71u as=0.12665p ps=1.145u w=0.74u l=0.13u
X60 a_6885_4629# _251_.CLK a_7345_4671# VGND sg13_lv_nmos ad=0.2516p pd=2.16u as=0.31732p ps=1.805u w=0.74u l=0.13u
X61 a_13824_7989# _160_.B VPWR VPWR sg13_lv_pmos ad=0.1596p pd=1.22u as=0.4536p ps=2.76u w=0.84u l=0.13u
X62 VPWR _166_.A _170_.B VPWR sg13_lv_pmos ad=0.3808p pd=2.92u as=0.2128p ps=1.5u w=1.12u l=0.13u
X63 VGND VPWR VGND VGND sg13_lv_nmos ad=0.1428p pd=1.52u as=0 ps=0 w=0.42u l=1u
X64 VPWR a_3886_10702# clkbuf_1_0__f_sclk.A VPWR sg13_lv_pmos ad=0.2128p pd=1.5u as=0.2128p ps=1.5u w=1.12u l=0.13u
X65 a_7553_14832# _186_.Y _202_.Y VGND sg13_lv_nmos ad=0.1406p pd=1.12u as=0.1406p ps=1.12u w=0.74u l=0.13u
X66 a_1580_12936# fanout8.A VPWR VPWR sg13_lv_pmos ad=0.2856p pd=2.36u as=0.2114p ps=1.54u w=0.84u l=0.13u
X67 fanout8.A a_1192_17508# VPWR VPWR sg13_lv_pmos ad=0.42p pd=2.99u as=0.2114p ps=1.54u w=1.12u l=0.13u
X68 VPWR _170_.Y a_8014_8492# VPWR sg13_lv_pmos ad=0.2618p pd=1.63u as=0.2856p ps=2.36u w=0.84u l=0.13u
X69 VPWR _180_.X a_8603_9484# VPWR sg13_lv_pmos ad=0.2128p pd=1.5u as=0.2128p ps=1.5u w=1.12u l=0.13u
X70 a_16281_11583# a_15339_11471# a_16079_11821# VPWR sg13_lv_pmos ad=93.45f pd=0.865u as=0.2048p ps=1.63u w=0.42u l=0.13u
X71 a_12132_12528# a_12651_12332# a_13391_12287# VGND sg13_lv_nmos ad=0.3473p pd=2.71u as=0.12665p ps=1.145u w=0.74u l=0.13u
X72 a_2298_10318# a_2232_10210# VGND VGND sg13_lv_nmos ad=0.3367p pd=1.65u as=0.148p ps=1.14u w=0.74u l=0.13u
X73 a_15697_8789# a_15237_8447# a_15339_8447# VGND sg13_lv_nmos ad=0.31732p pd=1.805u as=0.2516p ps=2.16u w=0.74u l=0.13u
X74 a_6320_10296# _174_.Y a_6218_10296# VGND sg13_lv_nmos ad=0.1216p pd=1.02u as=0.1216p ps=1.02u w=0.64u l=0.13u
X75 VGND _178_.Y _185_.Y VGND sg13_lv_nmos ad=0.2516p pd=2.16u as=0.1406p ps=1.12u w=0.74u l=0.13u
X76 _201_.Y a_6286_15276# VGND VGND sg13_lv_nmos ad=0.1406p pd=1.12u as=0.17255p ps=1.25u w=0.74u l=0.13u
X77 VGND VPWR VGND VGND sg13_lv_nmos ad=79.8f pd=0.8u as=0 ps=0 w=0.42u l=1u
X78 VPWR _250_.RESET_B a_2122_15964# VPWR sg13_lv_pmos ad=0.1563p pd=1.22u as=0.147p ps=1.54u w=0.42u l=0.13u
X79 VPWR VGND VPWR VPWR sg13_lv_pmos ad=0.34p pd=2.68u as=0 ps=0 w=1u l=1u
X80 VPWR VGND VPWR VPWR sg13_lv_pmos ad=0.34p pd=2.68u as=0 ps=0 w=1u l=1u
X81 VGND VPWR VGND VGND sg13_lv_nmos ad=79.8f pd=0.8u as=0 ps=0 w=0.42u l=1u
X82 VPWR VGND VPWR VPWR sg13_lv_pmos ad=0.19p pd=1.38u as=0 ps=0 w=1u l=1u
X83 a_14820_11464# a_14794_11428# VGND VGND sg13_lv_nmos ad=0.2516p pd=2.16u as=0.1626p ps=1.415u w=0.74u l=0.13u
X84 VGND _148_.B a_4913_13330# VGND sg13_lv_nmos ad=0.15245p pd=1.17u as=0.17462p ps=1.185u w=0.55u l=0.13u
X85 a_6442_4873# a_6885_4629# a_6825_5041# VPWR sg13_lv_pmos ad=79.8f pd=0.8u as=63f ps=0.72u w=0.42u l=0.13u
X86 _210_.B a_6810_3863# VGND VGND sg13_lv_nmos ad=0.1628p pd=1.18u as=0.3108p ps=2.32u w=0.74u l=0.13u
X87 VGND VPWR VGND VGND sg13_lv_nmos ad=79.8f pd=0.8u as=0 ps=0 w=0.42u l=1u
X88 VGND VPWR VGND VGND sg13_lv_nmos ad=79.8f pd=0.8u as=0 ps=0 w=0.42u l=1u
X89 VPWR VGND VPWR VPWR sg13_lv_pmos ad=0.34p pd=2.68u as=0 ps=0 w=1u l=1u
X90 VPWR VGND VPWR VPWR sg13_lv_pmos ad=0.19p pd=1.38u as=0 ps=0 w=1u l=1u
X91 a_10020_9504# a_9994_9409# VPWR VPWR sg13_lv_pmos ad=0.34p pd=2.68u as=0.36237p ps=2.605u w=1u l=0.13u
X92 _232_.Y _222_.A VGND VGND sg13_lv_nmos ad=0.2516p pd=2.16u as=0.2516p ps=2.16u w=0.74u l=0.13u
X93 a_8785_16349# a_8325_16007# a_8427_16007# VGND sg13_lv_nmos ad=0.31732p pd=1.805u as=0.2516p ps=2.16u w=0.74u l=0.13u
X94 a_15983_12287# a_15141_12189# a_15889_12287# VGND sg13_lv_nmos ad=0.12665p pd=1.145u as=0.1428p ps=1.52u w=0.42u l=0.13u
X95 _149_.A a_16650_5412# VGND VGND sg13_lv_nmos ad=0.2516p pd=2.16u as=0.1406p ps=1.12u w=0.74u l=0.13u
X96 a_6962_9194# _178_.B1 VGND VGND sg13_lv_nmos ad=0.1406p pd=1.12u as=0.2886p ps=2.26u w=0.74u l=0.13u
X97 VPWR VGND VPWR VPWR sg13_lv_pmos ad=0.19p pd=1.38u as=0 ps=0 w=1u l=1u
X98 a_15108_8861# a_15339_8447# a_14794_8404# VGND sg13_lv_nmos ad=0.2373p pd=1.97u as=79.8f ps=0.8u w=0.42u l=0.13u
X99 _179_.Y _177_.X VGND VGND sg13_lv_nmos ad=0.1406p pd=1.12u as=0.2516p ps=2.16u w=0.74u l=0.13u
X100 a_2122_12940# a_2565_12983# a_1862_13410# VGND sg13_lv_nmos ad=79.8f pd=0.8u as=0.1296p ps=1.52u w=0.42u l=0.13u
X101 a_2244_12528# a_2218_12433# VGND VGND sg13_lv_nmos ad=0.2516p pd=2.16u as=0.1626p ps=1.415u w=0.74u l=0.13u
X102 VGND VPWR VGND VGND sg13_lv_nmos ad=79.8f pd=0.8u as=0 ps=0 w=0.42u l=1u
X103 VGND VPWR VGND VGND sg13_lv_nmos ad=0.1428p pd=1.52u as=0 ps=0 w=0.42u l=1u
X104 a_2512_5782# _210_.A a_2398_5782# VGND sg13_lv_nmos ad=0.3367p pd=1.65u as=0.1628p ps=1.18u w=0.74u l=0.13u
X105 a_2620_17878# _118_.A0 a_2126_17774# VGND sg13_lv_nmos ad=0.13135p pd=1.095u as=0.1628p ps=1.18u w=0.74u l=0.13u
X106 _210_.A a_5226_4948# VGND VGND sg13_lv_nmos ad=0.2516p pd=2.16u as=0.1406p ps=1.12u w=0.74u l=0.13u
X107 a_2853_9165# _243_.CLK a_3313_9207# VGND sg13_lv_nmos ad=0.2516p pd=2.16u as=0.31732p ps=1.805u w=0.74u l=0.13u
X108 a_12518_16434# _135_.X VPWR VPWR sg13_lv_pmos ad=79.8f pd=0.8u as=0.1428p ps=1.52u w=0.42u l=0.13u
X109 VGND a_12992_15437# _135_.X VGND sg13_lv_nmos ad=0.1331p pd=1.12u as=0.2516p ps=2.16u w=0.74u l=0.13u
X110 a_3014_4650# _242_.D VPWR VPWR sg13_lv_pmos ad=79.8f pd=0.8u as=0.1428p ps=1.52u w=0.42u l=0.13u
X111 _192_.Y _192_.C VPWR VPWR sg13_lv_pmos ad=0.2128p pd=1.5u as=0.3808p ps=2.92u w=1.12u l=0.13u
X112 a_8352_11013# _179_.Y VPWR VPWR sg13_lv_pmos ad=0.1596p pd=1.22u as=0.4536p ps=2.76u w=0.84u l=0.13u
X113 _119_.A0 a_4074_12972# VPWR VPWR sg13_lv_pmos ad=0.3808p pd=2.92u as=0.2128p ps=1.5u w=1.12u l=0.13u
X114 VPWR VGND VPWR VPWR sg13_lv_pmos ad=0.34p pd=2.68u as=0 ps=0 w=1u l=1u
X115 VGND VPWR VGND VGND sg13_lv_nmos ad=0.1428p pd=1.52u as=0 ps=0 w=0.42u l=1u
X116 VGND VPWR VGND VGND sg13_lv_nmos ad=0.1428p pd=1.52u as=0 ps=0 w=0.42u l=1u
X117 fanout6.A a_10218_17044# VPWR VPWR sg13_lv_pmos ad=0.3808p pd=2.92u as=0.2128p ps=1.5u w=1.12u l=0.13u
X118 a_15861_16904# _238_.Y VPWR VPWR sg13_lv_pmos ad=0.147p pd=1.54u as=0.1563p ps=1.22u w=0.42u l=0.13u
X119 a_15081_5459# a_14724_5416# VPWR VPWR sg13_lv_pmos ad=63f pd=0.72u as=0.1563p ps=1.22u w=0.42u l=0.13u
X120 a_12215_7664# _162_.Y VGND VGND sg13_lv_nmos ad=0.1406p pd=1.12u as=0.3811p ps=2.51u w=0.74u l=0.13u
X121 VGND VPWR VGND VGND sg13_lv_nmos ad=79.8f pd=0.8u as=0 ps=0 w=0.42u l=1u
X122 _218_.Y _215_.A VPWR VPWR sg13_lv_pmos ad=0.3808p pd=2.92u as=0.3808p ps=2.92u w=1.12u l=0.13u
X123 a_8315_10744# _179_.Y VGND VGND sg13_lv_nmos ad=78.39999f pd=0.885u as=0.2272p ps=1.99u w=0.64u l=0.13u
X124 _250_.Q a_4074_15996# VGND VGND sg13_lv_nmos ad=0.2516p pd=2.16u as=0.1406p ps=1.12u w=0.74u l=0.13u
X125 a_13019_6460# _152_.X _153_.Y VPWR sg13_lv_pmos ad=0.2128p pd=1.5u as=0.3808p ps=2.92u w=1.12u l=0.13u
X126 VPWR VGND VPWR VPWR sg13_lv_pmos ad=0.19p pd=1.38u as=0 ps=0 w=1u l=1u
X127 VPWR VGND VPWR VPWR sg13_lv_pmos ad=0.34p pd=2.68u as=0 ps=0 w=1u l=1u
X128 _153_.Y _152_.X VGND VGND sg13_lv_nmos ad=0.1406p pd=1.12u as=0.2516p ps=2.16u w=0.74u l=0.13u
X129 VPWR VGND VPWR VPWR sg13_lv_pmos ad=0.34p pd=2.68u as=0 ps=0 w=1u l=1u
X130 _219_.Y _215_.A VGND VGND sg13_lv_nmos ad=0.2516p pd=2.16u as=0.2516p ps=2.16u w=0.74u l=0.13u
X131 a_12992_15437# _135_.A a_13129_15280# VGND sg13_lv_nmos ad=0.2176p pd=1.96u as=0.1216p ps=1.02u w=0.64u l=0.13u
X132 a_2661_12189# _247_.CLK a_3121_12506# VPWR sg13_lv_pmos ad=0.4088p pd=2.97u as=0.41165p ps=2.12u w=1.12u l=0.13u
X133 a_6862_15260# _200_.Y VGND VGND sg13_lv_nmos ad=0.1406p pd=1.12u as=0.2516p ps=2.16u w=0.74u l=0.13u
X134 VGND a_3956_6888# _243_.CLK VGND sg13_lv_nmos ad=0.1406p pd=1.12u as=0.1406p ps=1.12u w=0.74u l=0.13u
X135 a_10377_9577# a_10020_9504# VPWR VPWR sg13_lv_pmos ad=63f pd=0.72u as=0.1563p ps=1.22u w=0.42u l=0.13u
X136 VPWR VGND VPWR VPWR sg13_lv_pmos ad=0.19p pd=1.38u as=0 ps=0 w=1u l=1u
X137 VPWR VGND VPWR VPWR sg13_lv_pmos ad=0.34p pd=2.68u as=0 ps=0 w=1u l=1u
X138 a_16402_5850# _226_.Y VGND VGND sg13_lv_nmos ad=37.8f pd=0.6u as=79.8f ps=0.8u w=0.42u l=0.13u
X139 a_16281_8559# a_15339_8447# a_16079_8797# VPWR sg13_lv_pmos ad=93.45f pd=0.865u as=0.2048p ps=1.63u w=0.42u l=0.13u
X140 a_3121_12231# a_2661_12189# a_2763_12332# VGND sg13_lv_nmos ad=0.31732p pd=1.805u as=0.2516p ps=2.16u w=0.74u l=0.13u
X141 VPWR VGND VPWR VPWR sg13_lv_pmos ad=0.19p pd=1.38u as=0 ps=0 w=1u l=1u
X142 VPWR _260_.RESET_B a_14794_9409# VPWR sg13_lv_pmos ad=0.1563p pd=1.22u as=0.147p ps=1.54u w=0.42u l=0.13u
X143 a_6389_9484# _173_.Y VPWR VPWR sg13_lv_pmos ad=0.2128p pd=1.5u as=0.2128p ps=1.5u w=1.12u l=0.13u
X144 a_5147_15996# _207_.A2 VPWR VPWR sg13_lv_pmos ad=0.3808p pd=2.92u as=0.2128p ps=1.5u w=1.12u l=0.13u
X145 a_11279_9263# a_10437_9165# a_10020_9504# VPWR sg13_lv_pmos ad=0.2048p pd=1.63u as=0.34p ps=2.68u w=1u l=0.13u
X146 VGND a_15599_15311# a_16266_15532# VGND sg13_lv_nmos ad=0.1406p pd=1.12u as=0.2516p ps=2.16u w=0.74u l=0.13u
X147 VPWR VGND VPWR VPWR sg13_lv_pmos ad=0.34p pd=2.68u as=0 ps=0 w=1u l=1u
X148 a_2342_4338# _243_.D VPWR VPWR sg13_lv_pmos ad=79.8f pd=0.8u as=0.1428p ps=1.52u w=0.42u l=0.13u
X149 VGND _147_.B1 _147_.Y VGND sg13_lv_nmos ad=0.2516p pd=2.16u as=0.1406p ps=1.12u w=0.74u l=0.13u
X150 VGND _210_.B a_6747_5468# VGND sg13_lv_nmos ad=0.14505p pd=1.15u as=0.187p ps=1.78u w=0.55u l=0.13u
X151 VGND VPWR VGND VGND sg13_lv_nmos ad=0.1428p pd=1.52u as=0 ps=0 w=0.42u l=1u
X152 _243_.CLK a_3956_6888# VGND VGND sg13_lv_nmos ad=0.1406p pd=1.12u as=0.1406p ps=1.12u w=0.74u l=0.13u
X153 VGND _148_.X a_13775_5782# VGND sg13_lv_nmos ad=0.1898p pd=1.36u as=0.1406p ps=1.12u w=0.74u l=0.13u
X154 a_6011_13320# _190_.A VGND VGND sg13_lv_nmos ad=78.39999f pd=0.885u as=0.2272p ps=1.99u w=0.64u l=0.13u
X155 _128_.B1 _260_.CLK VPWR VPWR sg13_lv_pmos ad=0.2128p pd=1.5u as=0.3808p ps=2.92u w=1.12u l=0.13u
X156 VGND VPWR VGND VGND sg13_lv_nmos ad=79.8f pd=0.8u as=0 ps=0 w=0.42u l=1u
X157 VPWR VGND VPWR VPWR sg13_lv_pmos ad=0.34p pd=2.68u as=0 ps=0 w=1u l=1u
X158 _187_.Y _120_.A0 VPWR VPWR sg13_lv_pmos ad=0.2128p pd=1.5u as=0.3808p ps=2.92u w=1.12u l=0.13u
X159 a_13030_16421# _237_.Y VGND VGND sg13_lv_nmos ad=37.8f pd=0.6u as=0.1701p ps=1.65u w=0.42u l=0.13u
X160 a_12420_12223# a_12132_12528# a_12358_12223# VGND sg13_lv_nmos ad=0.1428p pd=1.52u as=37.8f ps=0.6u w=0.42u l=0.13u
X161 a_7872_5451# _145_.A2 a_7835_5760# VGND sg13_lv_nmos ad=0.2176p pd=1.96u as=78.39999f ps=0.885u w=0.64u l=0.13u
X162 VGND VPWR VGND VGND sg13_lv_nmos ad=79.8f pd=0.8u as=0 ps=0 w=0.42u l=1u
X163 VGND a_3956_6888# _243_.CLK VGND sg13_lv_nmos ad=0.1406p pd=1.12u as=0.1406p ps=1.12u w=0.74u l=0.13u
X164 VPWR _207_.A2 a_5376_17061# VPWR sg13_lv_pmos ad=0.2891p pd=1.695u as=0.1596p ps=1.22u w=0.84u l=0.13u
X165 a_11590_16759# _241_.Y VGND VGND sg13_lv_nmos ad=37.8f pd=0.6u as=0.1701p ps=1.65u w=0.42u l=0.13u
X166 _247_.CLK a_3380_13690# VPWR VPWR sg13_lv_pmos ad=0.2128p pd=1.5u as=0.3976p ps=2.95u w=1.12u l=0.13u
X167 a_3274_5380# a_3717_5423# a_3014_5850# VGND sg13_lv_nmos ad=79.8f pd=0.8u as=0.1296p ps=1.52u w=0.42u l=0.13u
X168 VPWR VGND VPWR VPWR sg13_lv_pmos ad=0.19p pd=1.38u as=0 ps=0 w=1u l=1u
X169 VPWR _124_.S a_2558_15532# VPWR sg13_lv_pmos ad=0.253p pd=1.53u as=0.3325p ps=1.665u w=1u l=0.13u
X170 VGND VPWR VGND VGND sg13_lv_nmos ad=79.8f pd=0.8u as=0 ps=0 w=0.42u l=1u
X171 VPWR _191_.Y a_6862_15532# VPWR sg13_lv_pmos ad=0.3808p pd=2.92u as=0.2128p ps=1.5u w=1.12u l=0.13u
X172 a_14534_11898# a_15339_11471# a_14794_11428# VPWR sg13_lv_pmos ad=0.1428p pd=1.52u as=79.8f ps=0.8u w=0.42u l=0.13u
X173 a_2436_8440# a_2410_8404# VPWR VPWR sg13_lv_pmos ad=0.34p pd=2.68u as=0.36237p ps=2.605u w=1u l=0.13u
X174 VPWR _240_.Y a_9994_17476# VPWR sg13_lv_pmos ad=0.1563p pd=1.22u as=0.147p ps=1.54u w=0.42u l=0.13u
X175 a_4890_16762# _250_.Q VGND VGND sg13_lv_nmos ad=88.8f pd=0.98u as=0.15245p ps=1.17u w=0.74u l=0.13u
X176 a_2232_7868# _124_.S VGND VGND sg13_lv_nmos ad=0.187p pd=1.78u as=0.18945p ps=1.27u w=0.55u l=0.13u
X177 _134_.Y _133_.Y a_12886_13350# VGND sg13_lv_nmos ad=0.2516p pd=2.16u as=0.1406p ps=1.12u w=0.74u l=0.15u
X178 VGND VPWR VGND VGND sg13_lv_nmos ad=0.1428p pd=1.52u as=0 ps=0 w=0.42u l=1u
X179 _247_.CLK a_3380_13690# VGND VGND sg13_lv_nmos ad=0.1406p pd=1.12u as=0.1406p ps=1.12u w=0.74u l=0.13u
X180 a_11338_16969# a_11781_16725# a_11721_17137# VPWR sg13_lv_pmos ad=79.8f pd=0.8u as=63f ps=0.72u w=0.42u l=0.13u
X181 VPWR VGND VPWR VPWR sg13_lv_pmos ad=0.34p pd=2.68u as=0 ps=0 w=1u l=1u
X182 VGND VPWR VGND VGND sg13_lv_nmos ad=79.8f pd=0.8u as=0 ps=0 w=0.42u l=1u
X183 a_12778_15964# a_13221_16007# a_12518_16434# VGND sg13_lv_nmos ad=79.8f pd=0.8u as=0.1296p ps=1.52u w=0.42u l=0.13u
X184 a_8506_10318# _171_.Y _183_.Y VGND sg13_lv_nmos ad=0.1406p pd=1.12u as=0.2516p ps=2.16u w=0.74u l=0.13u
X185 a_13009_12231# a_12549_12189# a_12651_12332# VGND sg13_lv_nmos ad=0.31732p pd=1.805u as=0.2516p ps=2.16u w=0.74u l=0.13u
X186 VGND VPWR VGND VGND sg13_lv_nmos ad=0.1428p pd=1.52u as=0 ps=0 w=0.42u l=1u
X187 a_15141_5423# _251_.CLK a_15601_5414# VPWR sg13_lv_pmos ad=0.4088p pd=2.97u as=0.41165p ps=2.12u w=1.12u l=0.13u
X188 VPWR _229_.Y a_9130_12433# VPWR sg13_lv_pmos ad=0.1563p pd=1.22u as=0.147p ps=1.54u w=0.42u l=0.13u
X189 _147_.A1 a_11274_4948# VGND VGND sg13_lv_nmos ad=0.2516p pd=2.16u as=0.1406p ps=1.12u w=0.74u l=0.13u
X190 VPWR _218_.Y a_2410_8404# VPWR sg13_lv_pmos ad=0.1563p pd=1.22u as=0.147p ps=1.54u w=0.42u l=0.13u
X191 a_13321_7272# _160_.B VGND VGND sg13_lv_nmos ad=0.1216p pd=1.02u as=0.1331p ps=1.12u w=0.64u l=0.13u
X192 a_16300_5535# a_16240_5654# a_16185_5535# VPWR sg13_lv_pmos ad=0.204p pd=1.835u as=93.45f ps=0.865u w=0.42u l=0.13u
X193 a_2575_5436# _125_.A1 a_2398_5782# VPWR sg13_lv_pmos ad=0.2975p pd=1.595u as=0.2225p ps=1.445u w=1u l=0.13u
X194 VGND _162_.B a_13073_7728# VGND sg13_lv_nmos ad=0.15245p pd=1.17u as=0.17462p ps=1.185u w=0.55u l=0.13u
X195 a_9169_16767# a_8709_16725# a_8811_16868# VGND sg13_lv_nmos ad=0.31732p pd=1.805u as=0.2516p ps=2.16u w=0.74u l=0.13u
X196 VGND VPWR VGND VGND sg13_lv_nmos ad=0.1428p pd=1.52u as=0 ps=0 w=0.42u l=1u
X197 VGND VPWR VGND VGND sg13_lv_nmos ad=79.8f pd=0.8u as=0 ps=0 w=0.42u l=1u
X198 VPWR VGND VPWR VPWR sg13_lv_pmos ad=0.19p pd=1.38u as=0 ps=0 w=1u l=1u
X199 a_4177_4671# a_3717_4629# a_3819_4772# VGND sg13_lv_nmos ad=0.31732p pd=1.805u as=0.2516p ps=2.16u w=0.74u l=0.13u
X200 _207_.Y _206_.Y VGND VGND sg13_lv_nmos ad=0.1406p pd=1.12u as=0.2516p ps=2.16u w=0.74u l=0.13u
X201 VPWR VGND VPWR VPWR sg13_lv_pmos ad=0.34p pd=2.68u as=0 ps=0 w=1u l=1u
X202 a_5084_12972# _148_.B VPWR VPWR sg13_lv_pmos ad=0.2128p pd=1.5u as=0.2128p ps=1.5u w=1.12u l=0.13u
X203 VPWR _145_.X a_13820_4948# VPWR sg13_lv_pmos ad=0.2128p pd=1.5u as=0.3808p ps=2.92u w=1.12u l=0.13u
X204 _214_.A a_11946_17508# VGND VGND sg13_lv_nmos ad=0.2516p pd=2.16u as=0.1406p ps=1.12u w=0.74u l=0.13u
X205 a_8709_16725# fanout7.A a_9169_17042# VPWR sg13_lv_pmos ad=0.4088p pd=2.97u as=0.41165p ps=2.12u w=1.12u l=0.13u
X206 VGND a_3380_13690# _247_.CLK VGND sg13_lv_nmos ad=0.1406p pd=1.12u as=0.1406p ps=1.12u w=0.74u l=0.13u
X207 a_4761_5535# a_3819_5423# a_4559_5773# VPWR sg13_lv_pmos ad=93.45f pd=0.865u as=0.2048p ps=1.63u w=0.42u l=0.13u
X208 VPWR a_10220_18222# _236_.A VPWR sg13_lv_pmos ad=0.2114p pd=1.54u as=0.42p ps=2.99u w=1.12u l=0.13u
X209 a_3503_12287# a_2661_12189# a_3409_12287# VGND sg13_lv_nmos ad=0.12665p pd=1.145u as=0.1428p ps=1.52u w=0.42u l=0.13u
X210 _192_.B _176_.B VPWR VPWR sg13_lv_pmos ad=0.2128p pd=1.5u as=0.3808p ps=2.92u w=1.12u l=0.13u
X211 VGND _225_.Y a_9156_4650# VGND sg13_lv_nmos ad=0.1626p pd=1.415u as=60.89999f ps=0.71u w=0.42u l=0.13u
X212 a_2301_5782# _124_.S VGND VGND sg13_lv_nmos ad=0.13135p pd=1.095u as=0.18945p ps=1.27u w=0.74u l=0.13u
X213 a_15177_9577# a_14820_9504# VPWR VPWR sg13_lv_pmos ad=63f pd=0.72u as=0.1563p ps=1.22u w=0.42u l=0.13u
X214 a_12804_16000# a_12778_15964# VPWR VPWR sg13_lv_pmos ad=0.34p pd=2.68u as=0.36237p ps=2.605u w=1u l=0.13u
X215 VPWR _174_.Y _184_.Y VPWR sg13_lv_pmos ad=0.2128p pd=1.5u as=0.2128p ps=1.5u w=1.12u l=0.13u
X216 VGND VPWR VGND VGND sg13_lv_nmos ad=0.1428p pd=1.52u as=0 ps=0 w=0.42u l=1u
X217 VPWR VGND VPWR VPWR sg13_lv_pmos ad=0.34p pd=2.68u as=0 ps=0 w=1u l=1u
X218 VPWR VGND VPWR VPWR sg13_lv_pmos ad=0.19p pd=1.38u as=0 ps=0 w=1u l=1u
X219 a_16079_9263# a_15237_9165# a_14820_9504# VPWR sg13_lv_pmos ad=0.2048p pd=1.63u as=0.34p ps=2.68u w=1u l=0.13u
X220 VGND a_3380_13690# _247_.CLK VGND sg13_lv_nmos ad=0.1406p pd=1.12u as=0.1406p ps=1.12u w=0.74u l=0.13u
X221 a_8564_5412# _138_.Y VPWR VPWR sg13_lv_pmos ad=0.3808p pd=2.92u as=0.2128p ps=1.5u w=1.12u l=0.13u
X222 _173_.Y _173_.A VPWR VPWR sg13_lv_pmos ad=0.2128p pd=1.5u as=0.3808p ps=2.92u w=1.12u l=0.13u
X223 a_3952_9406# a_3695_9263# a_4114_9186# VGND sg13_lv_nmos ad=0.1428p pd=1.52u as=37.8f ps=0.6u w=0.42u l=0.13u
X224 VGND a_1580_16710# _222_.A VGND sg13_lv_nmos ad=0.14875p pd=1.16u as=0.2886p ps=2.26u w=0.74u l=0.13u
X225 VPWR VGND VPWR VPWR sg13_lv_pmos ad=0.34p pd=2.68u as=0 ps=0 w=1u l=1u
X226 a_10895_8436# _160_.X VPWR VPWR sg13_lv_pmos ad=0.2128p pd=1.5u as=0.2128p ps=1.5u w=1.12u l=0.13u
X227 a_8705_9212# _180_.X _181_.Y VGND sg13_lv_nmos ad=0.1406p pd=1.12u as=0.1406p ps=1.12u w=0.74u l=0.13u
X228 a_14438_5850# _151_.X VPWR VPWR sg13_lv_pmos ad=79.8f pd=0.8u as=0.1428p ps=1.52u w=0.42u l=0.13u
X229 a_13787_7720# _160_.B VGND VGND sg13_lv_nmos ad=78.39999f pd=0.885u as=0.2272p ps=1.99u w=0.64u l=0.13u
X230 _147_.B1 a_11661_4696# VGND VGND sg13_lv_nmos ad=0.2516p pd=2.16u as=0.1331p ps=1.12u w=0.74u l=0.13u
X231 VGND VPWR VGND VGND sg13_lv_nmos ad=0.1428p pd=1.52u as=0 ps=0 w=0.42u l=1u
X232 a_5339_16792# _207_.A1 VGND VGND sg13_lv_nmos ad=78.39999f pd=0.885u as=0.2272p ps=1.99u w=0.64u l=0.13u
X233 a_14314_15457# a_14757_15213# a_14697_15625# VPWR sg13_lv_pmos ad=79.8f pd=0.8u as=63f ps=0.72u w=0.42u l=0.13u
X234 VPWR VGND VPWR VPWR sg13_lv_pmos ad=0.19p pd=1.38u as=0 ps=0 w=1u l=1u
X235 a_12984_12952# _148_.B VPWR VPWR sg13_lv_pmos ad=0.2128p pd=1.5u as=0.3808p ps=2.92u w=1.12u l=0.15u
X236 VGND VPWR VGND VGND sg13_lv_nmos ad=0.1428p pd=1.52u as=0 ps=0 w=0.42u l=1u
X237 VGND _243_.RESET_B a_2436_4338# VGND sg13_lv_nmos ad=0.1626p pd=1.415u as=60.89999f ps=0.71u w=0.42u l=0.13u
X238 VGND VPWR VGND VGND sg13_lv_nmos ad=0.1428p pd=1.52u as=0 ps=0 w=0.42u l=1u
X239 VPWR VGND VPWR VPWR sg13_lv_pmos ad=0.19p pd=1.38u as=0 ps=0 w=1u l=1u
X240 a_1580_12936# fanout8.A VGND VGND sg13_lv_nmos ad=0.187p pd=1.78u as=0.14875p ps=1.16u w=0.55u l=0.13u
X241 _133_.Y _132_.Y VGND VGND sg13_lv_nmos ad=0.2618p pd=2.22u as=0.1463p ps=1.15u w=0.77u l=0.13u
X242 VGND VPWR VGND VGND sg13_lv_nmos ad=0.1428p pd=1.52u as=0 ps=0 w=0.42u l=1u
X243 a_2232_11722# _124_.S VPWR VPWR sg13_lv_pmos ad=0.2856p pd=2.36u as=0.253p ps=1.53u w=0.84u l=0.13u
X244 a_13649_4704# _145_.X VGND VGND sg13_lv_nmos ad=0.17462p pd=1.185u as=0.374p ps=2.46u w=0.55u l=0.13u
X245 a_10225_4671# a_9765_4629# a_9867_4772# VGND sg13_lv_nmos ad=0.31732p pd=1.805u as=0.2516p ps=2.16u w=0.74u l=0.13u
X246 a_3956_6888# clkbuf_1_0__f_sclk.A VGND VGND sg13_lv_nmos ad=0.1406p pd=1.12u as=0.1406p ps=1.12u w=0.74u l=0.13u
X247 a_10897_17861# a_10437_17519# a_10539_17519# VGND sg13_lv_nmos ad=0.31732p pd=1.805u as=0.2516p ps=2.16u w=0.74u l=0.13u
X248 a_6508_15532# a_6286_15276# VPWR VPWR sg13_lv_pmos ad=0.1176p pd=1.33u as=0.2618p ps=1.63u w=1.12u l=0.13u
X249 VPWR _221_.Y a_2122_12940# VPWR sg13_lv_pmos ad=0.1563p pd=1.22u as=0.147p ps=1.54u w=0.42u l=0.13u
X250 _129_.B1 _128_.B1 a_13366_13350# VGND sg13_lv_nmos ad=0.2516p pd=2.16u as=0.1406p ps=1.12u w=0.74u l=0.15u
X251 _242_.D a_2398_5782# VPWR VPWR sg13_lv_pmos ad=0.6048p pd=3.32u as=0.2198p ps=1.52u w=1.12u l=0.13u
X252 a_9444_13735# a_9675_13844# a_9130_13945# VGND sg13_lv_nmos ad=0.2373p pd=1.97u as=79.8f ps=0.8u w=0.42u l=0.13u
X253 a_9382_13735# _230_.Y VGND VGND sg13_lv_nmos ad=37.8f pd=0.6u as=0.1701p ps=1.65u w=0.42u l=0.13u
X254 a_12549_7996# _161_.Y VPWR VPWR sg13_lv_pmos ad=0.34p pd=2.68u as=0.19p ps=1.38u w=1u l=0.13u
X255 a_7251_15996# _201_.Y VPWR VPWR sg13_lv_pmos ad=0.1428p pd=1.375u as=0.2891p ps=1.695u w=1.12u l=0.13u
X256 VPWR a_3956_6888# _243_.CLK VPWR sg13_lv_pmos ad=0.2128p pd=1.5u as=0.2128p ps=1.5u w=1.12u l=0.13u
X257 VPWR VGND VPWR VPWR sg13_lv_pmos ad=0.34p pd=2.68u as=0 ps=0 w=1u l=1u
X258 VGND VPWR VGND VGND sg13_lv_nmos ad=79.8f pd=0.8u as=0 ps=0 w=0.42u l=1u
X259 VPWR _153_.Y _161_.Y VPWR sg13_lv_pmos ad=0.3808p pd=2.92u as=0.2128p ps=1.5u w=1.12u l=0.13u
X260 a_13244_7972# _162_.B VPWR VPWR sg13_lv_pmos ad=0.2128p pd=1.5u as=0.2128p ps=1.5u w=1.12u l=0.13u
X261 a_6491_8784# _168_.A VGND VGND sg13_lv_nmos ad=78.39999f pd=0.885u as=0.2272p ps=1.99u w=0.64u l=0.13u
X262 a_5178_13330# _119_.A0 VGND VGND sg13_lv_nmos ad=88.8f pd=0.98u as=0.15245p ps=1.17u w=0.74u l=0.13u
X263 a_7727_4727# a_6885_4629# a_7633_4727# VGND sg13_lv_nmos ad=0.12665p pd=1.145u as=0.1428p ps=1.52u w=0.42u l=0.13u
X264 VPWR a_3503_12287# a_3760_12430# VPWR sg13_lv_pmos ad=0.4659p pd=3.65u as=79.8f ps=0.8u w=0.42u l=0.13u
X265 a_3717_5423# _243_.CLK a_4177_5414# VPWR sg13_lv_pmos ad=0.4088p pd=2.97u as=0.41165p ps=2.12u w=1.12u l=0.13u
X266 VGND VPWR VGND VGND sg13_lv_nmos ad=79.8f pd=0.8u as=0 ps=0 w=0.42u l=1u
X267 a_9130_13945# a_9573_13701# a_9513_14113# VPWR sg13_lv_pmos ad=79.8f pd=0.8u as=63f ps=0.72u w=0.42u l=0.13u
X268 _243_.CLK a_3956_6888# VPWR VPWR sg13_lv_pmos ad=0.2128p pd=1.5u as=0.2128p ps=1.5u w=1.12u l=0.13u
X269 VGND VPWR VGND VGND sg13_lv_nmos ad=79.8f pd=0.8u as=0 ps=0 w=0.42u l=1u
X270 VPWR _124_.S a_2171_6204# VPWR sg13_lv_pmos ad=0.253p pd=1.53u as=0.2856p ps=2.36u w=0.84u l=0.13u
X271 _182_.Y _181_.Y a_8595_10996# VPWR sg13_lv_pmos ad=0.2408p pd=1.55u as=0.1428p ps=1.375u w=1.12u l=0.13u
X272 a_10020_9504# a_9994_9409# VGND VGND sg13_lv_nmos ad=0.2516p pd=2.16u as=0.1626p ps=1.415u w=0.74u l=0.13u
X273 VPWR VGND VPWR VPWR sg13_lv_pmos ad=0.34p pd=2.68u as=0 ps=0 w=1u l=1u
X274 VGND VPWR VGND VGND sg13_lv_nmos ad=0.1428p pd=1.52u as=0 ps=0 w=0.42u l=1u
X275 VGND VPWR VGND VGND sg13_lv_nmos ad=0.1428p pd=1.52u as=0 ps=0 w=0.42u l=1u
X276 VPWR _124_.S a_2558_9972# VPWR sg13_lv_pmos ad=0.253p pd=1.53u as=0.3325p ps=1.665u w=1u l=0.13u
X277 VPWR VGND VPWR VPWR sg13_lv_pmos ad=0.19p pd=1.38u as=0 ps=0 w=1u l=1u
X278 VPWR _210_.A a_6060_4166# VPWR sg13_lv_pmos ad=0.4536p pd=2.76u as=0.1596p ps=1.22u w=0.84u l=0.13u
X279 a_10732_12525# a_10672_12430# a_10617_12525# VPWR sg13_lv_pmos ad=0.204p pd=1.835u as=93.45f ps=0.865u w=0.42u l=0.13u
X280 VGND VPWR VGND VGND sg13_lv_nmos ad=0.1428p pd=1.52u as=0 ps=0 w=0.42u l=1u
X281 _119_.A0 a_4074_12972# VGND VGND sg13_lv_nmos ad=0.2516p pd=2.16u as=0.1406p ps=1.12u w=0.74u l=0.13u
X282 VPWR a_3956_6888# _243_.CLK VPWR sg13_lv_pmos ad=0.2128p pd=1.5u as=0.2128p ps=1.5u w=1.12u l=0.13u
X283 VPWR VGND VPWR VPWR sg13_lv_pmos ad=0.34p pd=2.68u as=0 ps=0 w=1u l=1u
X284 VPWR _120_.A0 a_5468_12508# VPWR sg13_lv_pmos ad=0.2128p pd=1.5u as=0.3808p ps=2.92u w=1.12u l=0.13u
X285 a_7727_4727# a_6885_4629# a_6468_4968# VPWR sg13_lv_pmos ad=0.2048p pd=1.63u as=0.34p ps=2.68u w=1u l=0.13u
X286 _178_.Y _173_.Y a_6483_9212# VGND sg13_lv_nmos ad=0.1406p pd=1.12u as=0.1406p ps=1.12u w=0.74u l=0.13u
X287 VPWR VGND VPWR VPWR sg13_lv_pmos ad=0.19p pd=1.38u as=0 ps=0 w=1u l=1u
X288 a_15012_12223# a_14724_12528# a_14950_12223# VGND sg13_lv_nmos ad=0.1428p pd=1.52u as=37.8f ps=0.6u w=0.42u l=0.13u
X289 VPWR VGND VPWR VPWR sg13_lv_pmos ad=0.34p pd=2.68u as=0 ps=0 w=1u l=1u
X290 VPWR VGND VPWR VPWR sg13_lv_pmos ad=0.19p pd=1.38u as=0 ps=0 w=1u l=1u
X291 a_13883_11460# _126_.B1 VPWR VPWR sg13_lv_pmos ad=0.3808p pd=2.92u as=0.2128p ps=1.5u w=1.12u l=0.13u
X292 VGND _144_.Y a_8557_4248# VGND sg13_lv_nmos ad=0.3811p pd=2.51u as=0.1406p ps=1.12u w=0.74u l=0.13u
X293 VGND _124_.S a_2620_7678# VGND sg13_lv_nmos ad=0.18945p pd=1.27u as=0.13135p ps=1.095u w=0.74u l=0.13u
X294 VPWR VGND VPWR VPWR sg13_lv_pmos ad=0.34p pd=2.68u as=0 ps=0 w=1u l=1u
X295 VPWR _236_.Y a_14534_11898# VPWR sg13_lv_pmos ad=0.36237p pd=2.605u as=79.8f ps=0.8u w=0.42u l=0.13u